
  EPA STORM WATER MANAGEMENT MODEL - VERSION 5.1 (Build 5.2.0.dev5)
  --------------------------------------------------------------

  
  *********************************************************
  NOTE: The summary statistics displayed in this report are
  based on results found at every computational time step,  
  not just on results from each reporting time step.
  *********************************************************
  
  ****************
  Analysis Options
  ****************
  Flow Units ............... MLD
  Process Models:
    Rainfall/Runoff ........ YES
    RDII ................... NO
    Snowmelt ............... NO
    Groundwater ............ NO
    Flow Routing ........... YES
    Ponding Allowed ........ NO
    Water Quality .......... YES
  Infiltration Method ...... GREEN_AMPT
  Flow Routing Method ...... DYNWAVE
  Surcharge Method ......... EXTRAN
  Starting Date ............ 08/28/2015 08:00:00
  Ending Date .............. 08/28/2015 11:50:00
  Antecedent Dry Days ...... 4.0
  Report Time Step ......... 00:01:00
  Wet Time Step ............ 00:01:00
  Dry Time Step ............ 00:01:00
  Routing Time Step ........ 5.00 sec
  Variable Time Step ....... YES
  Maximum Trials ........... 8
  Number of Threads ........ 1
  Head Tolerance ........... 0.001500 m
  
  
  **************************        Volume         Depth
  Runoff Quantity Continuity     hectare-m            mm
  **************************     ---------       -------
  Total Precipitation ......         1.266        20.462
  Evaporation Loss .........         0.000         0.000
  Infiltration Loss ........         0.523         8.456
  Surface Runoff ...........         0.303         4.905
  Final Storage ............         0.439         7.102
  Continuity Error (%) .....        -0.005
  
  
  **************************           COD         NH3-N            TN            TP            SS
  Runoff Quality Continuity             kg            kg            kg            kg            kg
  **************************    ----------    ----------    ----------    ----------    ----------
  Initial Buildup ..........      2504.640         0.000         0.000         0.000         0.000
  Surface Buildup ..........        19.724         0.000         0.000         0.000         0.000
  Wet Deposition ...........         0.000         0.000         0.000         0.000         0.000
  Sweeping Removal .........         0.000         0.000         0.000         0.000         0.000
  Infiltration Loss ........       121.028         0.000         0.000         0.000         0.000
  BMP Removal ..............         0.000         0.000         0.000         0.000         0.000
  Surface Runoff ...........       550.270         0.000         0.000         0.000         0.000
  Remaining Buildup ........      1851.416         0.000         0.000         0.000         0.000
  Continuity Error (%) .....         0.065         0.000         0.000         0.000         0.000
  
  
  **************************        Volume        Volume
  Flow Routing Continuity        hectare-m      10^6 ltr
  **************************     ---------     ---------
  Dry Weather Inflow .......         0.000         0.000
  Wet Weather Inflow .......         0.303         3.028
  Groundwater Inflow .......         0.000         0.000
  RDII Inflow ..............         0.000         0.000
  External Inflow ..........         0.082         0.822
  External Outflow .........         0.204         2.044
  Flooding Loss ............         0.115         1.147
  Evaporation Loss .........         0.000         0.000
  Exfiltration Loss ........         0.000         0.000
  Initial Stored Volume ....         0.000         0.000
  Final Stored Volume ......         0.062         0.621
  Continuity Error (%) .....         0.985
  
  
  **************************           COD         NH3-N            TN            TP            SS
  Quality Routing Continuity            kg            kg            kg            kg            kg
  **************************    ----------    ----------    ----------    ----------    ----------
  Dry Weather Inflow .......         0.000         0.000         0.000         0.000         0.000
  Wet Weather Inflow .......       549.260         0.000         0.000         0.000         0.000
  Groundwater Inflow .......         0.000         0.000         0.000         0.000         0.000
  RDII Inflow ..............         0.000         0.000         0.000         0.000         0.000
  External Inflow ..........       137.264         0.000         0.000         0.000         0.000
  External Outflow .........       359.047         0.000         0.000         0.000         0.000
  Flooding Loss ............       199.218         0.000         0.000         0.000         0.000
  Exfiltration Loss ........         0.000         0.000         0.000         0.000         0.000
  Mass Reacted .............         0.000         0.000         0.000         0.000         0.000
  Initial Stored Mass ......         0.000         0.000         0.000         0.000         0.000
  Final Stored Mass ........       120.987         0.000         0.000         0.000         0.000
  Continuity Error (%) .....         1.059         0.000         0.000         0.000         0.000
  
  
  *************************
  Highest Continuity Errors
  *************************
  Node WS02006230 (7.73%)
  Node WS02006229 (5.00%)
  Node WS02006231 (4.46%)
  Node WS02006115 (3.80%)
  Node WS02006116 (3.50%)
  
  
  ***************************
  Time-Step Critical Elements
  ***************************
  Link 8 (87.05%)
  Link WSL2448 (10.71%)
  
  
  ********************************
  Highest Flow Instability Indexes
  ********************************
  Link WSL2302 (3)
  Link WSL2301 (3)
  Link WSL2297 (2)
  Link WSL2296 (2)
  Link WSL2298 (2)
  
  
  *************************
  Routing Time Step Summary
  *************************
  Minimum Time Step           :     0.15 sec
  Average Time Step           :     1.08 sec
  Maximum Time Step           :     5.00 sec
  Percent in Steady State     :    -0.00
  Average Iterations per Step :     2.09
  Percent Not Converging      :     0.52
  
  
  ***************************
  Subcatchment Runoff Summary
  ***************************
  
  ------------------------------------------------------------------------------------------------------------------------------
                            Total      Total      Total      Total     Imperv       Perv      Total       Total     Peak  Runoff
                           Precip      Runon       Evap      Infil     Runoff     Runoff     Runoff      Runoff   Runoff   Coeff
  Subcatchment                 mm         mm         mm         mm         mm         mm         mm    10^6 ltr      MLD
  ------------------------------------------------------------------------------------------------------------------------------
  1                         20.46      25.53       0.00      10.03      10.95      11.88      22.84        0.28     4.23   0.497
  2                         20.46       0.00       0.00       8.01       4.91       2.28       7.19        0.24     4.36   0.352
  3                         20.46       0.00       0.00       8.07       4.86       1.93       6.79        0.35     6.22   0.332
  35                        20.46       0.00       0.00       8.00       4.93       2.38       7.30        0.22     3.98   0.357
  36                        20.46      14.51       0.00       9.71       8.11       4.66      12.77        0.75    11.51   0.365
  40                        20.46       3.85       0.00       8.52       5.77       2.95       8.73        0.34     5.79   0.359
  41                        20.46       0.00       0.00       7.92       4.97       2.81       7.78        0.15     2.72   0.380
  42                        20.46       0.00       0.00       7.95       4.95       2.65       7.60        0.17     3.12   0.371
  43                        20.46       0.00       0.00       7.54       5.06       4.80       9.86        0.04     0.65   0.482
  44                        20.46     212.25       0.00      15.64      56.95     127.19     184.15        0.68    11.25   0.791
  45                        20.46       0.00       0.00       7.80       5.01       3.50       8.52        0.09     1.58   0.416
  46                        20.46      12.26       0.00       9.26       7.80       6.07      13.87        0.30     4.55   0.424
  47                        20.46       0.00       0.00       7.81       5.01       3.42       8.43        0.09     1.69   0.412
  48                        20.46       5.91       0.00       8.56       6.36       4.73      11.10        0.18     2.88   0.421
  55                        20.46       8.85       0.00       8.67       7.12       6.92      14.05        0.12     1.87   0.479
  56                        20.46      13.45       0.00       9.36       8.08       6.42      14.50        0.31     4.71   0.428
  57                        20.46       0.00       0.00       8.07       4.86       1.95       6.81        0.34     6.12   0.333
  59                        20.46       0.00       0.00       7.75       5.03       3.74       8.77        0.07     1.33   0.428
  60                        20.46      19.18       0.00       9.35       9.66      12.56      22.21        0.12     1.81   0.560
  61                        20.46       0.00       0.00       8.20       4.60       1.13       5.73        1.03    18.19   0.280
  64                        20.46       0.00       0.00       7.83       5.00       3.33       8.33        0.10     1.80   0.407
  
  
  ****************************
  Subcatchment Washoff Summary
  ****************************
  
  ------------------------------------------------------------------------------------------
                                 COD         NH3-N            TN            TP            SS
  Subcatchment                    kg            kg            kg            kg            kg
  ------------------------------------------------------------------------------------------
  1                           50.146         0.000         0.000         0.000         0.000
  2                            0.000         0.000         0.000         0.000         0.000
  3                            0.000         0.000         0.000         0.000         0.000
  35                          42.569         0.000         0.000         0.000         0.000
  36                         252.430         0.000         0.000         0.000         0.000
  40                          81.745         0.000         0.000         0.000         0.000
  41                          30.062         0.000         0.000         0.000         0.000
  42                          34.095         0.000         0.000         0.000         0.000
  43                           8.027         0.000         0.000         0.000         0.000
  44                         230.918         0.000         0.000         0.000         0.000
  45                          18.356         0.000         0.000         0.000         0.000
  46                          96.690         0.000         0.000         0.000         0.000
  47                          19.458         0.000         0.000         0.000         0.000
  48                          48.058         0.000         0.000         0.000         0.000
  55                          34.967         0.000         0.000         0.000         0.000
  56                         101.934         0.000         0.000         0.000         0.000
  57                          62.994         0.000         0.000         0.000         0.000
  59                          15.655         0.000         0.000         0.000         0.000
  60                          34.965         0.000         0.000         0.000         0.000
  61                         171.245         0.000         0.000         0.000         0.000
  64                          20.679         0.000         0.000         0.000         0.000
  ------------------------------------------------------------------------------------------
  System                    1354.991         0.000         0.000         0.000         0.000
  
  
  ******************
  Node Depth Summary
  ******************
  
  ---------------------------------------------------------------------------------
                                 Average  Maximum  Maximum  Time of Max    Reported
                                   Depth    Depth      HGL   Occurrence   Max Depth
  Node                 Type       Meters   Meters   Meters  days hr:min      Meters
  ---------------------------------------------------------------------------------
  WS01000070           JUNCTION     0.00     0.00     0.00     0  00:00        0.00
  WS01000323           JUNCTION     0.00     0.00     0.00     0  00:00        0.00
  WS01000533           JUNCTION     0.00     0.00     6.86     0  00:00        0.00
  WS01005172           JUNCTION     0.00     0.00     0.00     0  00:00        0.00
  WS01005181           JUNCTION     0.00     0.00     0.00     0  00:00        0.00
  WS01009841           JUNCTION     0.00     0.00     0.00     0  00:00        0.00
  WS02000078           JUNCTION     0.00     0.00     0.00     0  00:00        0.00
  WS02000112           JUNCTION     0.00     0.00     0.00     0  00:00        0.00
  WS02000136           JUNCTION     0.00     0.00     0.00     0  00:00        0.00
  WS02004053           JUNCTION     0.00     0.00     0.00     0  00:00        0.00
  WS02004401           JUNCTION     2.14     2.32     8.32     0  02:33        2.32
  WS02005192           JUNCTION     0.40     0.49     8.36     0  01:59        0.49
  WS02005193           JUNCTION     0.44     0.54     8.36     0  02:00        0.51
  WS02005196           JUNCTION     0.41     0.51     8.36     0  02:00        0.49
  WS02006109           JUNCTION     1.54     1.72     8.34     0  02:33        1.72
  WS02006110           JUNCTION     1.56     1.74     8.34     0  02:33        1.74
  WS02006111           JUNCTION     1.57     1.75     8.33     0  02:33        1.75
  WS02006112           JUNCTION     2.02     2.21     8.33     0  02:33        2.21
  WS02006113           JUNCTION     1.57     1.75     8.34     0  02:33        1.75
  WS02006115           JUNCTION     2.04     2.23     8.33     0  02:33        2.23
  WS02006116           JUNCTION     2.10     2.28     8.32     0  02:33        2.28
  WS02006183           JUNCTION     0.00     0.00     0.00     0  00:00        0.00
  WS02006228           JUNCTION     1.51     1.69     8.34     0  02:33        1.69
  WS02006229           JUNCTION     1.47     1.65     8.34     0  02:33        1.65
  WS02006230           JUNCTION     1.42     1.59     8.34     0  02:33        1.59
  WS02006231           JUNCTION     1.28     1.44     8.34     0  02:33        1.44
  WS02006232           JUNCTION     1.16     1.31     8.34     0  02:33        1.31
  WS02006234           JUNCTION     1.04     1.18     8.34     0  02:33        1.18
  WS02006235           JUNCTION     1.03     1.17     8.34     0  02:33        1.17
  WS02006238           JUNCTION     1.02     1.16     8.34     0  02:33        1.16
  WS02006239           JUNCTION     0.99     1.13     8.34     0  02:33        1.13
  WS02006242           JUNCTION     0.91     1.03     8.33     0  02:33        1.03
  WS02006240           JUNCTION     0.92     1.04     8.33     0  02:33        1.04
  WS02006243           JUNCTION     0.80     0.91     8.33     0  02:33        0.91
  WS02006245           JUNCTION     0.73     0.84     8.33     0  02:01        0.84
  WS02006247           JUNCTION     0.72     0.82     8.33     0  02:32        0.82
  WS02006248           JUNCTION     0.64     0.74     8.33     0  02:31        0.74
  WS02006249           JUNCTION     0.63     0.73     8.33     0  02:30        0.73
  WS02006251           JUNCTION     0.57     0.66     8.33     0  02:00        0.66
  WS02006253           JUNCTION     0.45     0.54     8.34     0  02:00        0.53
  WS02618401           JUNCTION     0.00     0.00     0.00     0  00:00        0.00
  WSA1649              JUNCTION     0.00     0.00     0.00     0  00:00        0.00
  outfall-5            OUTFALL      0.10     0.14     7.80     0  02:31        0.14
  outfall-14           OUTFALL      0.09     0.12     7.78     0  02:33        0.12
  outfall-16           OUTFALL      0.00     0.00     8.39     0  00:00        0.00
  CC-storage           STORAGE      5.32     5.63     8.81     0  01:35        5.63
  
  
  *******************
  Node Inflow Summary
  *******************
  
  -------------------------------------------------------------------------------------------------
                                  Maximum  Maximum                  Lateral       Total        Flow
                                  Lateral    Total  Time of Max      Inflow      Inflow     Balance
                                   Inflow   Inflow   Occurrence      Volume      Volume       Error
  Node                 Type           MLD      MLD  days hr:min    10^6 ltr    10^6 ltr     Percent
  -------------------------------------------------------------------------------------------------
  WS01000070           JUNCTION      0.00     0.00     0  00:00           0           0       0.000 ltr
  WS01000323           JUNCTION      0.00     0.00     0  00:00           0           0       0.000 ltr
  WS01000533           JUNCTION      0.00     0.00     0  00:00           0           0       0.000 ltr
  WS01005172           JUNCTION      0.00     0.00     0  00:00           0           0       0.000 ltr
  WS01005181           JUNCTION      0.00     0.00     0  00:00           0           0       0.000 ltr
  WS01009841           JUNCTION      0.00     0.00     0  00:00           0           0       0.000 ltr
  WS02000078           JUNCTION      0.00     0.00     0  00:00           0           0       0.000 ltr
  WS02000112           JUNCTION      0.00     0.00     0  00:00           0           0       0.000 ltr
  WS02000136           JUNCTION      0.00     0.00     0  00:00           0           0       0.000 ltr
  WS02004053           JUNCTION      0.00     0.00     0  00:00           0           0       0.000 ltr
  WS02004401           JUNCTION      0.05    15.71     0  02:33      0.0086       0.957       3.034
  WS02005192           JUNCTION      6.22     6.22     0  02:22       0.357       0.357       0.685
  WS02005193           JUNCTION      0.09     6.42     0  02:23       0.014       0.384       1.844
  WS02005196           JUNCTION      0.12     6.34     0  02:22      0.0183       0.373       1.721
  WS02006109           JUNCTION      0.08     9.47     0  03:00      0.0129       0.722       3.464
  WS02006110           JUNCTION      0.08     9.54     0  02:54      0.0126       0.712       3.555
  WS02006111           JUNCTION      0.24    15.21     0  02:33      0.0352           1       2.101
  WS02006112           JUNCTION      0.18    15.37     0  02:33      0.0263        1.01       3.348
  WS02006113           JUNCTION      6.38    15.00     0  02:33       0.371        1.02       2.362
  WS02006115           JUNCTION      0.08    15.45     0  02:33      0.0129       0.989       3.945
  WS02006116           JUNCTION      0.24    15.65     0  02:33      0.0347        0.99       3.629
  WS02006183           JUNCTION      0.00     0.00     0  00:00           0           0       0.000 ltr
  WS02006228           JUNCTION     11.41    11.41     0  03:00       0.707       0.864       2.118
  WS02006229           JUNCTION      0.13     6.17     0  01:56      0.0193       0.318       5.258
  WS02006230           JUNCTION      0.07     6.18     0  01:56      0.0111       0.328       8.373
  WS02006231           JUNCTION      0.13     5.71     0  01:48      0.0197       0.335       4.665
  WS02006232           JUNCTION      4.44     7.35     0  01:48       0.255       0.568       2.742
  WS02006234           JUNCTION      0.14     7.41     0  01:48      0.0208        0.56       2.530
  WS02006235           JUNCTION      0.14     7.13     0  01:57      0.0215       0.556       1.419
  WS02006238           JUNCTION      0.15     7.37     0  01:57      0.0226       0.558       1.805
  WS02006239           JUNCTION      0.11     7.38     0  01:57      0.0167       0.557       2.798
  WS02006242           JUNCTION      0.08     7.39     0  01:59      0.0124       0.559       3.372
  WS02006240           JUNCTION      0.06     7.32     0  01:57     0.00952       0.554       3.034
  WS02006243           JUNCTION      0.17     7.57     0  01:59      0.0259       0.566       3.130
  WS02006245           JUNCTION      0.07     7.67     0  01:59      0.0109       0.556       2.424
  WS02006247           JUNCTION      4.36    10.79     0  02:53         0.3       0.821       1.393
  WS02006248           JUNCTION      0.12    18.71     0  02:31      0.0185        1.24       0.851
  WS02006249           JUNCTION      0.19     8.57     0  02:23      0.0275       0.552       2.658
  WS02006251           JUNCTION      1.93     8.43     0  02:23       0.126       0.527       2.745
  WS02006253           JUNCTION      0.11     6.52     0  02:22      0.0166         0.4       1.797
  WS02618401           JUNCTION      0.00     0.00     0  00:00           0           0       0.000 ltr
  WSA1649              JUNCTION      0.00     0.00     0  00:00           0           0       0.000 ltr
  outfall-5            OUTFALL       0.00    18.71     0  02:31           0        1.12       0.000
  outfall-14           OUTFALL       0.00    15.71     0  02:33           0       0.922       0.000
  outfall-16           OUTFALL       0.00     0.00     0  00:00           0           0       0.000 ltr
  CC-storage           STORAGE      19.81    19.81     0  02:26        1.31        1.31      -0.001
  
  
  **********************
  Node Surcharge Summary
  **********************
  
  Surcharging occurs when water rises above the top of the highest conduit.
  ---------------------------------------------------------------------
                                               Max. Height   Min. Depth
                                   Hours       Above Crown    Below Rim
  Node                 Type      Surcharged         Meters       Meters
  ---------------------------------------------------------------------
  WS01000070           JUNCTION        3.83          0.000        0.000
  WS01000323           JUNCTION        3.83          0.000        0.000
  WS01000533           JUNCTION        3.83          0.000        2.147
  WS01005172           JUNCTION        3.83          0.000        0.000
  WS01005181           JUNCTION        3.83          0.000        0.000
  WS01009841           JUNCTION        3.83          0.000        0.000
  WS02000078           JUNCTION        3.83          0.000        0.000
  WS02000112           JUNCTION        3.83          0.000        0.000
  WS02000136           JUNCTION        3.83          0.000        0.000
  WS02004053           JUNCTION        3.83          0.000        0.000
  WS02006109           JUNCTION        2.20          0.919        0.919
  WS02006110           JUNCTION        2.21          0.937        0.908
  WS02006111           JUNCTION        2.22          0.951        0.926
  WS02006112           JUNCTION        2.43          1.207        0.476
  WS02006113           JUNCTION        2.21          0.945        0.988
  WS02006115           JUNCTION        2.45          1.225        1.074
  WS02006116           JUNCTION        2.53          1.284        1.066
  WS02006183           JUNCTION        3.83          0.000        0.000
  WS02006228           JUNCTION        2.20          0.891        1.340
  WS02006229           JUNCTION        2.17          0.851        1.603
  WS02006231           JUNCTION        2.11          0.740        0.803
  WS02006232           JUNCTION        2.06          0.610        0.879
  WS02006234           JUNCTION        1.98          0.479        0.778
  WS02006235           JUNCTION        1.98          0.468        0.826
  WS02006238           JUNCTION        1.98          0.458        0.976
  WS02006239           JUNCTION        1.97          0.426        0.903
  WS02006242           JUNCTION        1.93          0.333        0.516
  WS02006240           JUNCTION        1.93          0.345        1.058
  WS02006243           JUNCTION        1.89          0.211        0.569
  WS02006245           JUNCTION        1.86          0.140        0.715
  WS02006247           JUNCTION        1.86          0.119        0.641
  WS02006249           JUNCTION        1.20          0.027        0.361
  WS02618401           JUNCTION        3.83          0.000        0.000
  WSA1649              JUNCTION        3.83          0.000        0.000
  
  
  *********************
  Node Flooding Summary
  *********************
  
  Flooding refers to all water that overflows a node, whether it ponds or not.
  --------------------------------------------------------------------------
                                                             Total   Maximum
                                 Maximum   Time of Max       Flood    Ponded
                        Hours       Rate    Occurrence      Volume     Depth
  Node                 Flooded       MLD   days hr:min    10^6 ltr    Meters
  --------------------------------------------------------------------------
  CC-storage              2.24     19.81      0  02:26       1.147     0.000
  
  
  **********************
  Storage Volume Summary
  **********************
  
  --------------------------------------------------------------------------------------------------
                         Average     Avg  Evap Exfil       Maximum     Max    Time of Max    Maximum
                          Volume    Pcnt  Pcnt  Pcnt        Volume    Pcnt     Occurrence    Outflow
  Storage Unit           1000 m3    Full  Loss  Loss       1000 m3    Full    days hr:min        MLD
  --------------------------------------------------------------------------------------------------
  CC-storage               0.150      95     0     0         0.159     100       0  01:35       0.00
  
  
  ***********************
  Outfall Loading Summary
  ***********************
  
  ---------------------------------------------------------------------------------------------------------------------------------
                         Flow       Avg       Max       Total         Total         Total         Total         Total         Total
                         Freq      Flow      Flow      Volume           COD         NH3-N            TN            TP            SS
  Outfall Node           Pcnt       MLD       MLD    10^6 ltr            kg            kg            kg            kg            kg
  ---------------------------------------------------------------------------------------------------------------------------------
  outfall-5             87.18     14.75     18.71       1.122       194.172         0.000         0.000         0.000         0.000
  outfall-14            87.20     12.14     15.71       0.922       164.889         0.000         0.000         0.000         0.000
  outfall-16             0.00      0.00      0.00       0.000         0.000         0.000         0.000         0.000         0.000
  ---------------------------------------------------------------------------------------------------------------------------------
  System                58.13     26.89     34.40       2.044       359.061         0.000         0.000         0.000         0.000
  
  
  ********************
  Link Flow Summary
  ********************
  
  -----------------------------------------------------------------------------
                                 Maximum  Time of Max   Maximum    Max/    Max/
                                  |Flow|   Occurrence   |Veloc|    Full    Full
  Link                 Type          MLD  days hr:min     m/sec    Flow   Depth
  -----------------------------------------------------------------------------
  WSL2038              CONDUIT      6.23     0  02:22      0.58    0.31    0.82
  WSL2039              CONDUIT      6.42     0  02:22      0.87    0.33    0.89
  WSL2041              CONDUIT      6.33     0  02:23      0.65    0.31    0.85
  WSL2294              CONDUIT      9.46     0  03:00      0.43    0.32    1.00
  WSL2295              CONDUIT      9.54     0  02:54      0.50    0.43    1.00
  WSL2296              CONDUIT     15.21     0  02:33      0.63    0.09    1.00
  WSL2297              CONDUIT     15.37     0  02:33      0.34    0.29    1.00
  WSL2298              CONDUIT     15.00     0  02:33      0.87    0.69    1.00
  WSL2301              CONDUIT     15.45     0  02:33      0.29    0.14    1.00
  WSL2302              CONDUIT     15.65     0  02:33      0.23    0.19    1.00
  WSL2441              CONDUIT      9.39     0  03:00      0.44    0.24    1.00
  WSL2442              CONDUIT      6.11     0  01:56      0.63    0.16    1.00
  WSL2443              CONDUIT      5.58     0  01:48      0.73    0.09    1.00
  WSL2444              CONDUIT      5.70     0  01:48      0.90    0.09    1.00
  WSL2446              CONDUIT      7.27     0  01:48      0.85    0.12    1.00
  WSL2447              CONDUIT      6.99     0  01:57      0.75    0.36    1.00
  WSL2448              CONDUIT      7.22     0  01:57      0.62    0.20    1.00
  WSL2449              CONDUIT      7.26     0  01:57      0.59    0.25    1.00
  WSL2450              CONDUIT      7.26     0  01:57      0.68    0.15    1.00
  WSL2451              CONDUIT      7.31     0  01:59      0.66    0.48    1.00
  WSL2452              CONDUIT      7.39     0  01:59      0.69    0.14    1.00
  WSL2454              CONDUIT      7.60     0  01:59      0.85    0.18    1.00
  WSL2478              CONDUIT      7.90     0  01:59      0.73    0.28    1.00
  WSL2479              CONDUIT     10.79     0  02:53      0.65    0.21    1.00
  WSL2480              CONDUIT      8.57     0  02:23      0.72    0.40    1.00
  WSL2482              CONDUIT      8.41     0  02:23      0.64    0.22    0.97
  WSL2484              CONDUIT      7.18     0  02:01      0.73    0.10    0.86
  WSL2493              CONDUIT      6.04     0  01:56      0.51    0.10    1.00
  8                    CONDUIT     18.71     0  02:31      5.78    0.25    0.34
  19                   CONDUIT      0.00     0  00:00      0.00    0.00    0.00
  17                   CONDUIT     15.71     0  02:33      5.56    0.20    0.31
  CC-Pump-1            PUMP         0.00     0  00:00              0.00
  CC-Pump-2            PUMP         0.00     0  00:00              0.00
  
  
  ***************************
  Flow Classification Summary
  ***************************
  
  -------------------------------------------------------------------------------------
                      Adjusted    ---------- Fraction of Time in Flow Class ---------- 
                       /Actual         Up    Down  Sub   Sup   Up    Down  Norm  Inlet 
  Conduit               Length    Dry  Dry   Dry   Crit  Crit  Crit  Crit  Ltd   Ctrl  
  -------------------------------------------------------------------------------------
  WSL2038                 1.00   0.00  0.00  0.00  1.00  0.00  0.00  0.00  0.01  0.00
  WSL2039                 1.00   0.00  0.00  0.00  0.99  0.01  0.00  0.00  0.00  0.00
  WSL2041                 1.00   0.00  0.00  0.00  1.00  0.00  0.00  0.00  0.31  0.00
  WSL2294                 1.00   0.00  0.00  0.00  1.00  0.00  0.00  0.00  0.00  0.00
  WSL2295                 1.00   0.00  0.00  0.00  1.00  0.00  0.00  0.00  0.00  0.00
  WSL2296                 1.00   0.00  0.00  0.00  1.00  0.00  0.00  0.00  0.17  0.00
  WSL2297                 1.00   0.00  0.00  0.00  1.00  0.00  0.00  0.00  0.00  0.00
  WSL2298                 1.00   0.00  0.00  0.00  0.98  0.02  0.00  0.00  0.00  0.00
  WSL2301                 1.00   0.00  0.00  0.00  1.00  0.00  0.00  0.00  0.04  0.00
  WSL2302                 1.00   0.00  0.00  0.00  1.00  0.00  0.00  0.00  0.01  0.00
  WSL2441                 1.00   0.00  0.00  0.00  1.00  0.00  0.00  0.00  0.00  0.00
  WSL2442                 1.00   0.00  0.00  0.00  1.00  0.00  0.00  0.00  0.17  0.00
  WSL2443                 1.00   0.00  0.00  0.00  1.00  0.00  0.00  0.00  0.31  0.00
  WSL2444                 1.00   0.00  0.00  0.00  0.93  0.07  0.00  0.00  0.23  0.00
  WSL2446                 1.00   0.00  0.00  0.00  0.93  0.07  0.00  0.00  0.03  0.00
  WSL2447                 1.00   0.00  0.00  0.00  1.00  0.00  0.00  0.00  0.00  0.00
  WSL2448                 1.00   0.00  0.00  0.00  1.00  0.00  0.00  0.00  0.00  0.00
  WSL2449                 1.00   0.00  0.00  0.00  1.00  0.00  0.00  0.00  0.03  0.00
  WSL2450                 1.00   0.00  0.00  0.00  1.00  0.00  0.00  0.00  0.43  0.00
  WSL2451                 1.00   0.00  0.00  0.00  1.00  0.00  0.00  0.00  0.00  0.00
  WSL2452                 1.00   0.00  0.00  0.00  1.00  0.00  0.00  0.00  0.43  0.00
  WSL2454                 1.00   0.00  0.00  0.00  1.00  0.00  0.00  0.00  0.02  0.00
  WSL2478                 1.00   0.00  0.00  0.00  1.00  0.00  0.00  0.00  0.00  0.00
  WSL2479                 1.00   0.00  0.00  0.00  1.00  0.00  0.00  0.00  0.47  0.00
  WSL2480                 1.00   0.00  0.00  0.00  1.00  0.00  0.00  0.00  0.00  0.00
  WSL2482                 1.00   0.00  0.00  0.00  1.00  0.00  0.00  0.00  0.48  0.00
  WSL2484                 1.00   0.00  0.00  0.00  1.00  0.00  0.00  0.00  0.48  0.00
  WSL2493                 1.00   0.00  0.00  0.00  1.00  0.00  0.00  0.00  0.05  0.00
  8                       1.00   0.13  0.00  0.00  0.00  0.87  0.00  0.00  0.02  0.00
  19                      1.00   1.00  0.00  0.00  0.00  0.00  0.00  0.00  0.00  0.00
  17                      1.00   0.13  0.00  0.00  0.00  0.87  0.00  0.00  0.00  0.00
  
  
  *************************
  Conduit Surcharge Summary
  *************************
  
  ----------------------------------------------------------------------------
                                                           Hours        Hours 
                         --------- Hours Full --------   Above Full   Capacity
  Conduit                Both Ends  Upstream  Dnstream   Normal Flow   Limited
  ----------------------------------------------------------------------------
  WSL2294                     2.20      2.20      2.21      0.01         0.01
  WSL2295                     2.21      2.21      2.21      0.01         0.01
  WSL2296                     2.22      2.22      2.74      0.01         0.01
  WSL2297                     2.43      2.43      2.45      0.01         0.01
  WSL2298                     2.21      2.21      2.22      0.01         0.01
  WSL2301                     2.45      2.45      2.53      0.01         0.01
  WSL2302                     2.53      2.53      2.60      0.01         0.01
  WSL2441                     2.20      2.20      2.20      0.01         0.01
  WSL2442                     2.19      2.19      2.22      0.01         0.01
  WSL2443                     2.11      2.11      2.19      0.01         0.01
  WSL2444                     2.06      2.06      2.11      0.01         0.01
  WSL2446                     1.98      1.98      2.06      0.01         0.01
  WSL2447                     1.98      1.98      1.98      0.01         0.01
  WSL2448                     1.98      1.98      1.98      0.01         0.01
  WSL2449                     1.97      1.97      1.98      0.01         0.01
  WSL2450                     1.93      1.93      1.97      0.01         0.01
  WSL2451                     1.93      1.93      1.93      0.01         0.01
  WSL2452                     1.89      1.89      1.93      0.01         0.01
  WSL2454                     1.86      1.86      1.89      0.01         0.01
  WSL2478                     1.86      1.86      1.86      0.01         0.01
  WSL2479                     1.54      1.54      1.86      0.01         0.01
  WSL2480                     1.20      1.20      1.54      0.01         0.01
  WSL2482                     0.01      0.01      1.20      0.01         0.01
  WSL2493                     2.17      2.17      2.20      0.01         0.01
  
  
  ***************
  Pumping Summary
  ***************
  
  ---------------------------------------------------------------------------------------------------------
                                                  Min       Avg       Max     Total     Power    % Time Off
                        Percent   Number of      Flow      Flow      Flow    Volume     Usage    Pump Curve
  Pump                 Utilized   Start-Ups       MLD       MLD       MLD  10^6 ltr     Kw-hr    Low   High
  ---------------------------------------------------------------------------------------------------------
  CC-Pump-1                0.00           0      0.00      0.00      0.00     0.000      0.00    0.0    0.0
  CC-Pump-2                0.00           0      0.00      0.00      0.00     0.000      0.00    0.0    0.0
  
  
  ***************************
  Link Pollutant Load Summary
  ***************************
  
  ------------------------------------------------------------------------------------------
                                 COD         NH3-N            TN            TP            SS
  Link                            kg            kg            kg            kg            kg
  ------------------------------------------------------------------------------------------
  WSL2038                     65.850         0.000         0.000         0.000         0.000
  WSL2039                     71.160         0.000         0.000         0.000         0.000
  WSL2041                     68.597         0.000         0.000         0.000         0.000
  WSL2294                    194.143         0.000         0.000         0.000         0.000
  WSL2295                    185.027         0.000         0.000         0.000         0.000
  WSL2296                    182.921         0.000         0.000         0.000         0.000
  WSL2297                    178.130         0.000         0.000         0.000         0.000
  WSL2298                    180.919         0.000         0.000         0.000         0.000
  WSL2301                    173.393         0.000         0.000         0.000         0.000
  WSL2302                    170.260         0.000         0.000         0.000         0.000
  WSL2441                    202.370         0.000         0.000         0.000         0.000
  WSL2442                     74.123         0.000         0.000         0.000         0.000
  WSL2443                     70.553         0.000         0.000         0.000         0.000
  WSL2444                     68.475         0.000         0.000         0.000         0.000
  WSL2446                     67.089         0.000         0.000         0.000         0.000
  WSL2447                     66.048         0.000         0.000         0.000         0.000
  WSL2448                     65.823         0.000         0.000         0.000         0.000
  WSL2449                     64.498         0.000         0.000         0.000         0.000
  WSL2450                     63.280         0.000         0.000         0.000         0.000
  WSL2451                     62.026         0.000         0.000         0.000         0.000
  WSL2452                     61.214         0.000         0.000         0.000         0.000
  WSL2454                     60.245         0.000         0.000         0.000         0.000
  WSL2478                     59.562         0.000         0.000         0.000         0.000
  WSL2479                    107.754         0.000         0.000         0.000         0.000
  WSL2480                    113.627         0.000         0.000         0.000         0.000
  WSL2482                    109.828         0.000         0.000         0.000         0.000
  WSL2484                     74.648         0.000         0.000         0.000         0.000
  WSL2493                     75.564         0.000         0.000         0.000         0.000
  8                          194.172         0.000         0.000         0.000         0.000
  19                           0.000         0.000         0.000         0.000         0.000
  17                         164.889         0.000         0.000         0.000         0.000
  CC-Pump-1                    0.000         0.000         0.000         0.000         0.000
  CC-Pump-2                    0.000         0.000         0.000         0.000         0.000
  

  Analysis begun on:  Thu Aug 15 18:10:08 2019
  Analysis ended on:  Thu Aug 15 18:10:08 2019
  Total elapsed time: < 1 sec