
  EPA STORM WATER MANAGEMENT MODEL - VERSION 5.1 (Build 5.2.0.dev5)
  --------------------------------------------------------------

  
  *********************************************************
  NOTE: The summary statistics displayed in this report are
  based on results found at every computational time step,  
  not just on results from each reporting time step.
  *********************************************************
  
  ****************
  Analysis Options
  ****************
  Flow Units ............... MLD
  Process Models:
    Rainfall/Runoff ........ YES
    RDII ................... NO
    Snowmelt ............... NO
    Groundwater ............ NO
    Flow Routing ........... YES
    Ponding Allowed ........ NO
    Water Quality .......... YES
  Infiltration Method ...... GREEN_AMPT
  Flow Routing Method ...... DYNWAVE
  Surcharge Method ......... EXTRAN
  Starting Date ............ 08/28/2015 08:00:00
  Ending Date .............. 08/28/2015 11:50:00
  Antecedent Dry Days ...... 4.0
  Report Time Step ......... 00:01:00
  Wet Time Step ............ 00:01:00
  Dry Time Step ............ 00:01:00
  Routing Time Step ........ 5.00 sec
  Variable Time Step ....... YES
  Maximum Trials ........... 8
  Number of Threads ........ 1
  Head Tolerance ........... 0.001500 m
  
  
  **************************        Volume         Depth
  Runoff Quantity Continuity     hectare-m            mm
  **************************     ---------       -------
  Total Precipitation ......         0.837        13.526
  Evaporation Loss .........         0.000         0.000
  Infiltration Loss ........         0.425         6.866
  Surface Runoff ...........         0.157         2.534
  Final Storage ............         0.255         4.127
  Continuity Error (%) .....        -0.008
  
  
  **************************           COD         NH3-N            TN            TP            SS
  Runoff Quality Continuity             kg            kg            kg            kg            kg
  **************************    ----------    ----------    ----------    ----------    ----------
  Initial Buildup ..........      2504.640         0.000         0.000         0.000         0.000
  Surface Buildup ..........        19.924         0.000         0.000         0.000         0.000
  Wet Deposition ...........         0.000         0.000         0.000         0.000         0.000
  Sweeping Removal .........         0.000         0.000         0.000         0.000         0.000
  Infiltration Loss ........        50.455         0.000         0.000         0.000         0.000
  BMP Removal ..............         0.000         0.000         0.000         0.000         0.000
  Surface Runoff ...........       180.039         0.000         0.000         0.000         0.000
  Remaining Buildup ........      2293.331         0.000         0.000         0.000         0.000
  Continuity Error (%) .....         0.029         0.000         0.000         0.000         0.000
  
  
  **************************        Volume        Volume
  Flow Routing Continuity        hectare-m      10^6 ltr
  **************************     ---------     ---------
  Dry Weather Inflow .......         0.000         0.000
  Wet Weather Inflow .......         0.156         1.564
  Groundwater Inflow .......         0.000         0.000
  RDII Inflow ..............         0.000         0.000
  External Inflow ..........         0.082         0.822
  External Outflow .........         0.103         1.031
  Flooding Loss ............         0.069         0.694
  Evaporation Loss .........         0.000         0.000
  Exfiltration Loss ........         0.000         0.000
  Initial Stored Volume ....         0.000         0.000
  Final Stored Volume ......         0.062         0.619
  Continuity Error (%) .....         1.740
  
  
  **************************           COD         NH3-N            TN            TP            SS
  Quality Routing Continuity            kg            kg            kg            kg            kg
  **************************    ----------    ----------    ----------    ----------    ----------
  Dry Weather Inflow .......         0.000         0.000         0.000         0.000         0.000
  Wet Weather Inflow .......       179.613         0.000         0.000         0.000         0.000
  Groundwater Inflow .......         0.000         0.000         0.000         0.000         0.000
  RDII Inflow ..............         0.000         0.000         0.000         0.000         0.000
  External Inflow ..........       137.268         0.000         0.000         0.000         0.000
  External Outflow .........       129.802         0.000         0.000         0.000         0.000
  Flooding Loss ............        86.537         0.000         0.000         0.000         0.000
  Exfiltration Loss ........         0.000         0.000         0.000         0.000         0.000
  Mass Reacted .............         0.000         0.000         0.000         0.000         0.000
  Initial Stored Mass ......         0.000         0.000         0.000         0.000         0.000
  Final Stored Mass ........        93.242         0.000         0.000         0.000         0.000
  Continuity Error (%) .....         2.304         0.000         0.000         0.000         0.000
  
  
  *************************
  Highest Continuity Errors
  *************************
  Node WS02006230 (9.60%)
  Node WS02006115 (7.20%)
  Node WS02006116 (6.68%)
  Node WS02006229 (6.44%)
  Node WS02006110 (6.12%)
  
  
  ***************************
  Time-Step Critical Elements
  ***************************
  Link 8 (81.84%)
  Link WSL2448 (14.54%)
  
  
  ********************************
  Highest Flow Instability Indexes
  ********************************
  Link WSL2302 (4)
  Link WSL2301 (4)
  Link WSL2297 (4)
  Link WSL2296 (3)
  Link WSL2298 (3)
  
  
  *************************
  Routing Time Step Summary
  *************************
  Minimum Time Step           :     0.50 sec
  Average Time Step           :     1.33 sec
  Maximum Time Step           :     5.00 sec
  Percent in Steady State     :    -0.00
  Average Iterations per Step :     2.07
  Percent Not Converging      :     0.35
  
  
  ***************************
  Subcatchment Runoff Summary
  ***************************
  
  ------------------------------------------------------------------------------------------------------------------------------
                            Total      Total      Total      Total     Imperv       Perv      Total       Total     Peak  Runoff
                           Precip      Runon       Evap      Infil     Runoff     Runoff     Runoff      Runoff   Runoff   Coeff
  Subcatchment                 mm         mm         mm         mm         mm         mm         mm    10^6 ltr      MLD
  ------------------------------------------------------------------------------------------------------------------------------
  1                         13.53      12.20       0.00       7.94       6.06       4.01      10.06        0.12     2.46   0.391
  2                         13.53       0.00       0.00       6.58       3.17       0.72       3.89        0.13     2.75   0.288
  3                         13.53       0.00       0.00       6.60       3.11       0.60       3.72        0.19     3.93   0.275
  35                        13.53       0.00       0.00       6.58       3.18       0.76       3.94        0.12     2.51   0.291
  36                        13.53       7.44       0.00       7.66       4.74       1.49       6.23        0.37     7.34   0.297
  40                        13.53       2.05       0.00       6.91       3.61       0.95       4.56        0.18     3.69   0.293
  41                        13.53       0.00       0.00       6.55       3.23       0.91       4.14        0.08     1.72   0.306
  42                        13.53       0.00       0.00       6.56       3.21       0.85       4.07        0.09     1.97   0.301
  43                        13.53       0.00       0.00       6.40       3.32       1.74       5.06        0.02     0.42   0.374
  44                        13.53     103.78       0.00      12.43      28.51      53.87      82.39        0.30     5.88   0.702
  45                        13.53       0.00       0.00       6.50       3.27       1.18       4.46        0.05     1.01   0.329
  46                        13.53       6.23       0.00       7.42       4.64       2.02       6.67        0.14     2.95   0.337
  47                        13.53       0.00       0.00       6.51       3.27       1.15       4.42        0.05     1.07   0.326
  48                        13.53       3.10       0.00       6.99       3.96       1.60       5.56        0.09     1.86   0.335
  55                        13.53       4.61       0.00       7.12       4.37       2.46       6.83        0.06     1.22   0.376
  56                        13.53       6.86       0.00       7.49       4.78       2.14       6.93        0.15     3.05   0.340
  57                        13.53       0.00       0.00       6.60       3.12       0.61       3.72        0.19     3.87   0.275
  59                        13.53       0.00       0.00       6.49       3.29       1.28       4.56        0.04     0.85   0.337
  60                        13.53      10.08       0.00       7.66       5.71       4.79      10.50        0.05     1.17   0.445
  61                        13.53       0.00       0.00       6.64       2.87       0.34       3.21        0.58    11.66   0.237
  64                        13.53       0.00       0.00       6.52       3.26       1.11       4.38        0.05     1.14   0.324
  
  
  ****************************
  Subcatchment Washoff Summary
  ****************************
  
  ------------------------------------------------------------------------------------------
                                 COD         NH3-N            TN            TP            SS
  Subcatchment                    kg            kg            kg            kg            kg
  ------------------------------------------------------------------------------------------
  1                           12.407         0.000         0.000         0.000         0.000
  2                            0.000         0.000         0.000         0.000         0.000
  3                            0.000         0.000         0.000         0.000         0.000
  35                          14.053         0.000         0.000         0.000         0.000
  36                          81.474         0.000         0.000         0.000         0.000
  40                          26.292         0.000         0.000         0.000         0.000
  41                           9.857         0.000         0.000         0.000         0.000
  42                          11.204         0.000         0.000         0.000         0.000
  43                           2.668         0.000         0.000         0.000         0.000
  44                          76.923         0.000         0.000         0.000         0.000
  45                           5.992         0.000         0.000         0.000         0.000
  46                          31.761         0.000         0.000         0.000         0.000
  47                           6.352         0.000         0.000         0.000         0.000
  48                          15.536         0.000         0.000         0.000         0.000
  55                          11.998         0.000         0.000         0.000         0.000
  56                          35.031         0.000         0.000         0.000         0.000
  57                          20.971         0.000         0.000         0.000         0.000
  59                           5.113         0.000         0.000         0.000         0.000
  60                          15.382         0.000         0.000         0.000         0.000
  61                          57.739         0.000         0.000         0.000         0.000
  64                           6.752         0.000         0.000         0.000         0.000
  ------------------------------------------------------------------------------------------
  System                     447.506         0.000         0.000         0.000         0.000
  
  
  ******************
  Node Depth Summary
  ******************
  
  ---------------------------------------------------------------------------------
                                 Average  Maximum  Maximum  Time of Max    Reported
                                   Depth    Depth      HGL   Occurrence   Max Depth
  Node                 Type       Meters   Meters   Meters  days hr:min      Meters
  ---------------------------------------------------------------------------------
  WS01000070           JUNCTION     0.00     0.00     0.00     0  00:00        0.00
  WS01000323           JUNCTION     0.00     0.00     0.00     0  00:00        0.00
  WS01000533           JUNCTION     0.00     0.00     6.86     0  00:00        0.00
  WS01005172           JUNCTION     0.00     0.00     0.00     0  00:00        0.00
  WS01005181           JUNCTION     0.00     0.00     0.00     0  00:00        0.00
  WS01009841           JUNCTION     0.00     0.00     0.00     0  00:00        0.00
  WS02000078           JUNCTION     0.00     0.00     0.00     0  00:00        0.00
  WS02000112           JUNCTION     0.00     0.00     0.00     0  00:00        0.00
  WS02000136           JUNCTION     0.00     0.00     0.00     0  00:00        0.00
  WS02004053           JUNCTION     0.00     0.00     0.00     0  00:00        0.00
  WS02004401           JUNCTION     2.06     2.30     8.30     0  03:01        2.30
  WS02005192           JUNCTION     0.35     0.44     8.31     0  02:12        0.44
  WS02005193           JUNCTION     0.39     0.48     8.30     0  03:01        0.48
  WS02005196           JUNCTION     0.37     0.46     8.31     0  02:12        0.46
  WS02006109           JUNCTION     1.46     1.69     8.31     0  03:00        1.69
  WS02006110           JUNCTION     1.48     1.71     8.31     0  03:00        1.71
  WS02006111           JUNCTION     1.50     1.73     8.31     0  03:00        1.72
  WS02006112           JUNCTION     1.94     2.18     8.30     0  03:00        2.18
  WS02006113           JUNCTION     1.49     1.72     8.31     0  03:00        1.71
  WS02006115           JUNCTION     1.96     2.20     8.30     0  03:00        2.20
  WS02006116           JUNCTION     2.02     2.26     8.30     0  03:00        2.26
  WS02006183           JUNCTION     0.00     0.00     0.00     0  00:00        0.00
  WS02006228           JUNCTION     1.44     1.66     8.31     0  03:00        1.66
  WS02006229           JUNCTION     1.40     1.62     8.31     0  03:00        1.62
  WS02006230           JUNCTION     1.34     1.56     8.31     0  03:01        1.56
  WS02006231           JUNCTION     1.20     1.41     8.31     0  03:00        1.41
  WS02006232           JUNCTION     1.08     1.28     8.31     0  03:00        1.28
  WS02006234           JUNCTION     0.97     1.15     8.31     0  03:00        1.15
  WS02006235           JUNCTION     0.96     1.14     8.31     0  03:00        1.14
  WS02006238           JUNCTION     0.95     1.13     8.31     0  03:00        1.13
  WS02006239           JUNCTION     0.93     1.10     8.31     0  03:00        1.10
  WS02006242           JUNCTION     0.85     1.01     8.31     0  03:00        1.00
  WS02006240           JUNCTION     0.85     1.02     8.31     0  03:00        1.02
  WS02006243           JUNCTION     0.74     0.88     8.30     0  03:00        0.88
  WS02006245           JUNCTION     0.68     0.81     8.30     0  03:00        0.81
  WS02006247           JUNCTION     0.66     0.79     8.30     0  03:00        0.79
  WS02006248           JUNCTION     0.59     0.71     8.30     0  03:01        0.71
  WS02006249           JUNCTION     0.58     0.70     8.30     0  03:01        0.70
  WS02006251           JUNCTION     0.52     0.63     8.30     0  03:01        0.63
  WS02006253           JUNCTION     0.41     0.50     8.30     0  03:01        0.50
  WS02618401           JUNCTION     0.00     0.00     0.00     0  00:00        0.00
  WSA1649              JUNCTION     0.00     0.00     0.00     0  00:00        0.00
  outfall-5            OUTFALL      0.07     0.11     7.78     0  03:01        0.11
  outfall-14           OUTFALL      0.07     0.10     7.76     0  03:01        0.10
  outfall-16           OUTFALL      0.00     0.00     8.39     0  00:00        0.00
  CC-storage           STORAGE      5.25     5.63     8.81     0  01:39        5.63
  
  
  *******************
  Node Inflow Summary
  *******************
  
  -------------------------------------------------------------------------------------------------
                                  Maximum  Maximum                  Lateral       Total        Flow
                                  Lateral    Total  Time of Max      Inflow      Inflow     Balance
                                   Inflow   Inflow   Occurrence      Volume      Volume       Error
  Node                 Type           MLD      MLD  days hr:min    10^6 ltr    10^6 ltr     Percent
  -------------------------------------------------------------------------------------------------
  WS01000070           JUNCTION      0.00     0.00     0  00:00           0           0       0.000 ltr
  WS01000323           JUNCTION      0.00     0.00     0  00:00           0           0       0.000 ltr
  WS01000533           JUNCTION      0.00     0.00     0  00:00           0           0       0.000 ltr
  WS01005172           JUNCTION      0.00     0.00     0  00:00           0           0       0.000 ltr
  WS01005181           JUNCTION      0.00     0.00     0  00:00           0           0       0.000 ltr
  WS01009841           JUNCTION      0.00     0.00     0  00:00           0           0       0.000 ltr
  WS02000078           JUNCTION      0.00     0.00     0  00:00           0           0       0.000 ltr
  WS02000112           JUNCTION      0.00     0.00     0  00:00           0           0       0.000 ltr
  WS02000136           JUNCTION      0.00     0.00     0  00:00           0           0       0.000 ltr
  WS02004053           JUNCTION      0.00     0.00     0  00:00           0           0       0.000 ltr
  WS02004401           JUNCTION      0.05    10.36     0  03:00      0.0086       0.491       6.037
  WS02005192           JUNCTION      3.96     3.96     0  03:01       0.203       0.203       1.143
  WS02005193           JUNCTION      0.09     4.14     0  03:01       0.014        0.23       2.972
  WS02005196           JUNCTION      0.12     4.06     0  03:01      0.0183       0.219       2.818
  WS02006109           JUNCTION      0.08     5.66     0  03:01      0.0129       0.415       6.253
  WS02006110           JUNCTION      0.08     5.74     0  03:01      0.0126       0.404       6.513
  WS02006111           JUNCTION      0.24     9.89     0  03:01      0.0352        0.54       3.990
  WS02006112           JUNCTION      0.18    10.04     0  03:01      0.0263       0.544       6.440
  WS02006113           JUNCTION      4.07     9.70     0  03:01       0.215       0.562       4.429
  WS02006115           JUNCTION      0.08    10.11     0  03:00      0.0129       0.526       7.759
  WS02006116           JUNCTION      0.24    10.31     0  03:00      0.0347       0.526       7.157
  WS02006183           JUNCTION      0.00     0.00     0  00:00           0           0       0.000 ltr
  WS02006228           JUNCTION      6.04     6.04     0  03:03       0.331       0.489       3.875
  WS02006229           JUNCTION      0.13     4.00     0  01:57      0.0193       0.251       6.880
  WS02006230           JUNCTION      0.07     4.05     0  01:57      0.0111       0.261      10.617
  WS02006231           JUNCTION      0.13     3.89     0  01:58      0.0197       0.268       6.007
  WS02006232           JUNCTION      2.83     5.00     0  01:58       0.144       0.391       4.093
  WS02006234           JUNCTION      0.14     5.15     0  01:54      0.0208       0.384       3.731
  WS02006235           JUNCTION      0.14     5.48     0  01:57      0.0215       0.379       2.167
  WS02006238           JUNCTION      0.15     5.82     0  01:59      0.0226       0.379       2.750
  WS02006239           JUNCTION      0.11     5.32     0  01:58      0.0167       0.378       4.211
  WS02006242           JUNCTION      0.08     5.19     0  02:11      0.0124       0.377       5.135
  WS02006240           JUNCTION      0.06     5.17     0  02:00     0.00952       0.374       4.591
  WS02006243           JUNCTION      0.17     5.34     0  02:11      0.0259       0.383       4.708
  WS02006245           JUNCTION      0.07     5.36     0  02:11      0.0109       0.371       3.699
  WS02006247           JUNCTION      2.59     7.00     0  03:01       0.145       0.483       2.411
  WS02006248           JUNCTION      0.12    12.70     0  03:01      0.0185       0.692       1.516
  WS02006249           JUNCTION      0.19     5.68     0  03:02      0.0275       0.338       4.334
  WS02006251           JUNCTION      1.28     5.49     0  03:01      0.0659       0.313       4.586
  WS02006253           JUNCTION      0.11     4.24     0  03:01      0.0166       0.246       2.838
  WS02618401           JUNCTION      0.00     0.00     0  00:00           0           0       0.000 ltr
  WSA1649              JUNCTION      0.00     0.00     0  00:00           0           0       0.000 ltr
  outfall-5            OUTFALL       0.00    12.70     0  03:01           0       0.575       0.000
  outfall-14           OUTFALL       0.00    10.36     0  03:01           0       0.456       0.000
  outfall-16           OUTFALL       0.00     0.00     0  00:00           0           0       0.000 ltr
  CC-storage           STORAGE      13.12    13.12     0  03:01       0.853       0.853       0.015
  
  
  **********************
  Node Surcharge Summary
  **********************
  
  Surcharging occurs when water rises above the top of the highest conduit.
  ---------------------------------------------------------------------
                                               Max. Height   Min. Depth
                                   Hours       Above Crown    Below Rim
  Node                 Type      Surcharged         Meters       Meters
  ---------------------------------------------------------------------
  WS01000070           JUNCTION        3.83          0.000        0.000
  WS01000323           JUNCTION        3.83          0.000        0.000
  WS01000533           JUNCTION        3.83          0.000        2.147
  WS01005172           JUNCTION        3.83          0.000        0.000
  WS01005181           JUNCTION        3.83          0.000        0.000
  WS01009841           JUNCTION        3.83          0.000        0.000
  WS02000078           JUNCTION        3.83          0.000        0.000
  WS02000112           JUNCTION        3.83          0.000        0.000
  WS02000136           JUNCTION        3.83          0.000        0.000
  WS02004053           JUNCTION        3.83          0.000        0.000
  WS02006109           JUNCTION        2.14          0.890        0.948
  WS02006110           JUNCTION        2.15          0.909        0.936
  WS02006111           JUNCTION        2.16          0.926        0.951
  WS02006112           JUNCTION        2.41          1.184        0.499
  WS02006113           JUNCTION        2.16          0.919        1.014
  WS02006115           JUNCTION        2.44          1.202        1.097
  WS02006116           JUNCTION        2.52          1.260        1.090
  WS02006183           JUNCTION        3.83          0.000        0.000
  WS02006228           JUNCTION        2.12          0.860        1.371
  WS02006229           JUNCTION        2.09          0.819        1.635
  WS02006231           JUNCTION        2.02          0.708        0.835
  WS02006232           JUNCTION        1.93          0.578        0.911
  WS02006234           JUNCTION        1.84          0.448        0.809
  WS02006235           JUNCTION        1.84          0.438        0.856
  WS02006238           JUNCTION        1.84          0.428        1.006
  WS02006239           JUNCTION        1.81          0.397        0.932
  WS02006242           JUNCTION        1.76          0.305        0.544
  WS02006240           JUNCTION        1.77          0.316        1.087
  WS02006243           JUNCTION        1.70          0.184        0.596
  WS02006245           JUNCTION        1.67          0.114        0.741
  WS02006247           JUNCTION        1.67          0.093        0.667
  WS02006249           JUNCTION        0.05          0.002        0.386
  WS02618401           JUNCTION        3.83          0.000        0.000
  WSA1649              JUNCTION        3.83          0.000        0.000
  
  
  *********************
  Node Flooding Summary
  *********************
  
  Flooding refers to all water that overflows a node, whether it ponds or not.
  --------------------------------------------------------------------------
                                                             Total   Maximum
                                 Maximum   Time of Max       Flood    Ponded
                        Hours       Rate    Occurrence      Volume     Depth
  Node                 Flooded       MLD   days hr:min    10^6 ltr    Meters
  --------------------------------------------------------------------------
  CC-storage              2.17     13.12      0  03:01       0.694     0.000
  
  
  **********************
  Storage Volume Summary
  **********************
  
  --------------------------------------------------------------------------------------------------
                         Average     Avg  Evap Exfil       Maximum     Max    Time of Max    Maximum
                          Volume    Pcnt  Pcnt  Pcnt        Volume    Pcnt     Occurrence    Outflow
  Storage Unit           1000 m3    Full  Loss  Loss       1000 m3    Full    days hr:min        MLD
  --------------------------------------------------------------------------------------------------
  CC-storage               0.148      93     0     0         0.159     100       0  01:39       0.00
  
  
  ***********************
  Outfall Loading Summary
  ***********************
  
  ---------------------------------------------------------------------------------------------------------------------------------
                         Flow       Avg       Max       Total         Total         Total         Total         Total         Total
                         Freq      Flow      Flow      Volume           COD         NH3-N            TN            TP            SS
  Outfall Node           Pcnt       MLD       MLD    10^6 ltr            kg            kg            kg            kg            kg
  ---------------------------------------------------------------------------------------------------------------------------------
  outfall-5             82.44      8.44     12.70       0.575        74.278         0.000         0.000         0.000         0.000
  outfall-14            82.39      6.72     10.36       0.456        55.532         0.000         0.000         0.000         0.000
  outfall-16             0.00      0.00      0.00       0.000         0.000         0.000         0.000         0.000         0.000
  ---------------------------------------------------------------------------------------------------------------------------------
  System                54.95     15.16     23.06       1.031       129.810         0.000         0.000         0.000         0.000
  
  
  ********************
  Link Flow Summary
  ********************
  
  -----------------------------------------------------------------------------
                                 Maximum  Time of Max   Maximum    Max/    Max/
                                  |Flow|   Occurrence   |Veloc|    Full    Full
  Link                 Type          MLD  days hr:min     m/sec    Flow   Depth
  -----------------------------------------------------------------------------
  WSL2038              CONDUIT      3.95     0  03:01      0.49    0.20    0.74
  WSL2039              CONDUIT      4.15     0  03:01      0.75    0.21    0.82
  WSL2041              CONDUIT      4.06     0  03:01      0.55    0.20    0.78
  WSL2294              CONDUIT      5.66     0  03:01      0.43    0.19    1.00
  WSL2295              CONDUIT      5.74     0  03:01      0.50    0.26    1.00
  WSL2296              CONDUIT      9.89     0  03:01      0.63    0.06    1.00
  WSL2297              CONDUIT     10.04     0  03:00      0.34    0.19    1.00
  WSL2298              CONDUIT      9.70     0  03:01      0.87    0.45    1.00
  WSL2301              CONDUIT     10.12     0  03:00      0.29    0.09    1.00
  WSL2302              CONDUIT     10.31     0  03:00      0.23    0.13    1.00
  WSL2441              CONDUIT      5.59     0  03:01      0.44    0.14    1.00
  WSL2442              CONDUIT      3.98     0  01:57      0.63    0.10    1.00
  WSL2443              CONDUIT      3.76     0  01:58      0.73    0.06    1.00
  WSL2444              CONDUIT      3.88     0  01:58      0.88    0.06    1.00
  WSL2446              CONDUIT      5.01     0  01:54      0.84    0.09    1.00
  WSL2447              CONDUIT      5.33     0  01:57      0.71    0.27    1.00
  WSL2448              CONDUIT      5.67     0  01:59      0.58    0.16    1.00
  WSL2449              CONDUIT      5.21     0  01:58      0.55    0.18    1.00
  WSL2450              CONDUIT      5.11     0  02:00      0.64    0.11    1.00
  WSL2451              CONDUIT      5.12     0  02:11      0.61    0.33    1.00
  WSL2452              CONDUIT      5.19     0  02:11      0.63    0.10    1.00
  WSL2454              CONDUIT      5.29     0  02:11      0.77    0.12    1.00
  WSL2478              CONDUIT      5.46     0  02:11      0.67    0.19    1.00
  WSL2479              CONDUIT      7.00     0  03:01      0.60    0.13    1.00
  WSL2480              CONDUIT      5.69     0  03:02      0.64    0.26    1.00
  WSL2482              CONDUIT      5.52     0  03:02      0.56    0.14    0.95
  WSL2484              CONDUIT      4.27     0  03:01      0.67    0.06    0.81
  WSL2493              CONDUIT      3.87     0  01:57      0.51    0.07    1.00
  8                    CONDUIT     12.70     0  03:01      5.18    0.17    0.28
  19                   CONDUIT      0.00     0  00:00      0.00    0.00    0.00
  17                   CONDUIT     10.36     0  03:01      4.94    0.13    0.25
  CC-Pump-1            PUMP         0.00     0  00:00              0.00
  CC-Pump-2            PUMP         0.00     0  00:00              0.00
  
  
  ***************************
  Flow Classification Summary
  ***************************
  
  -------------------------------------------------------------------------------------
                      Adjusted    ---------- Fraction of Time in Flow Class ---------- 
                       /Actual         Up    Down  Sub   Sup   Up    Down  Norm  Inlet 
  Conduit               Length    Dry  Dry   Dry   Crit  Crit  Crit  Crit  Ltd   Ctrl  
  -------------------------------------------------------------------------------------
  WSL2038                 1.00   0.00  0.00  0.00  1.00  0.00  0.00  0.00  0.01  0.00
  WSL2039                 1.00   0.00  0.00  0.00  1.00  0.00  0.00  0.00  0.00  0.00
  WSL2041                 1.00   0.00  0.00  0.00  1.00  0.00  0.00  0.00  0.33  0.00
  WSL2294                 1.00   0.00  0.00  0.00  1.00  0.00  0.00  0.00  0.00  0.00
  WSL2295                 1.00   0.00  0.00  0.00  1.00  0.00  0.00  0.00  0.00  0.00
  WSL2296                 1.00   0.00  0.00  0.00  1.00  0.00  0.00  0.00  0.17  0.00
  WSL2297                 1.00   0.00  0.00  0.00  1.00  0.00  0.00  0.00  0.00  0.00
  WSL2298                 1.00   0.00  0.00  0.00  0.97  0.03  0.00  0.00  0.00  0.00
  WSL2301                 1.00   0.00  0.00  0.00  1.00  0.00  0.00  0.00  0.04  0.00
  WSL2302                 1.00   0.00  0.00  0.00  1.00  0.00  0.00  0.00  0.01  0.00
  WSL2441                 1.00   0.00  0.00  0.00  1.00  0.00  0.00  0.00  0.00  0.00
  WSL2442                 1.00   0.00  0.00  0.00  1.00  0.00  0.00  0.00  0.17  0.00
  WSL2443                 1.00   0.00  0.00  0.00  1.00  0.00  0.00  0.00  0.31  0.00
  WSL2444                 1.00   0.00  0.00  0.00  0.92  0.08  0.00  0.00  0.24  0.00
  WSL2446                 1.00   0.00  0.00  0.00  0.90  0.10  0.00  0.00  0.03  0.00
  WSL2447                 1.00   0.00  0.00  0.00  1.00  0.00  0.00  0.00  0.00  0.00
  WSL2448                 1.00   0.00  0.00  0.00  1.00  0.00  0.00  0.00  0.00  0.00
  WSL2449                 1.00   0.00  0.00  0.00  1.00  0.00  0.00  0.00  0.03  0.00
  WSL2450                 1.00   0.00  0.00  0.00  1.00  0.00  0.00  0.00  0.44  0.00
  WSL2451                 1.00   0.00  0.00  0.00  1.00  0.00  0.00  0.00  0.00  0.00
  WSL2452                 1.00   0.00  0.00  0.00  1.00  0.00  0.00  0.00  0.45  0.00
  WSL2454                 1.00   0.00  0.00  0.00  1.00  0.00  0.00  0.00  0.02  0.00
  WSL2478                 1.00   0.00  0.00  0.00  1.00  0.00  0.00  0.00  0.00  0.00
  WSL2479                 1.00   0.00  0.00  0.00  1.00  0.00  0.00  0.00  0.49  0.00
  WSL2480                 1.00   0.00  0.00  0.00  1.00  0.00  0.00  0.00  0.00  0.00
  WSL2482                 1.00   0.00  0.00  0.00  1.00  0.00  0.00  0.00  0.51  0.00
  WSL2484                 1.00   0.00  0.00  0.00  1.00  0.00  0.00  0.00  0.51  0.00
  WSL2493                 1.00   0.00  0.00  0.00  1.00  0.00  0.00  0.00  0.05  0.00
  8                       1.00   0.18  0.00  0.00  0.00  0.82  0.00  0.00  0.01  0.00
  19                      1.00   1.00  0.00  0.00  0.00  0.00  0.00  0.00  0.00  0.00
  17                      1.00   0.18  0.00  0.00  0.00  0.82  0.00  0.00  0.00  0.00
  
  
  *************************
  Conduit Surcharge Summary
  *************************
  
  ----------------------------------------------------------------------------
                                                           Hours        Hours 
                         --------- Hours Full --------   Above Full   Capacity
  Conduit                Both Ends  Upstream  Dnstream   Normal Flow   Limited
  ----------------------------------------------------------------------------
  WSL2294                     2.14      2.14      2.15      0.01         0.01
  WSL2295                     2.15      2.15      2.16      0.01         0.01
  WSL2296                     2.16      2.16      2.74      0.01         0.01
  WSL2297                     2.41      2.41      2.44      0.01         0.01
  WSL2298                     2.16      2.16      2.16      0.01         0.01
  WSL2301                     2.44      2.44      2.52      0.01         0.01
  WSL2302                     2.52      2.52      2.59      0.01         0.01
  WSL2441                     2.12      2.12      2.14      0.01         0.01
  WSL2442                     2.12      2.12      2.15      0.01         0.01
  WSL2443                     2.02      2.02      2.12      0.01         0.01
  WSL2444                     1.93      1.93      2.02      0.01         0.01
  WSL2446                     1.84      1.84      1.93      0.01         0.01
  WSL2447                     1.84      1.84      1.84      0.01         0.01
  WSL2448                     1.84      1.84      1.84      0.01         0.01
  WSL2449                     1.81      1.81      1.84      0.01         0.01
  WSL2450                     1.77      1.77      1.81      0.01         0.01
  WSL2451                     1.76      1.76      1.77      0.01         0.01
  WSL2452                     1.70      1.70      1.76      0.01         0.01
  WSL2454                     1.67      1.67      1.70      0.01         0.01
  WSL2478                     1.67      1.67      1.67      0.01         0.01
  WSL2479                     0.30      0.30      1.67      0.01         0.01
  WSL2480                     0.05      0.05      0.30      0.01         0.01
  WSL2482                     0.01      0.01      0.05      0.01         0.01
  WSL2493                     2.09      2.09      2.12      0.01         0.01
  
  
  ***************
  Pumping Summary
  ***************
  
  ---------------------------------------------------------------------------------------------------------
                                                  Min       Avg       Max     Total     Power    % Time Off
                        Percent   Number of      Flow      Flow      Flow    Volume     Usage    Pump Curve
  Pump                 Utilized   Start-Ups       MLD       MLD       MLD  10^6 ltr     Kw-hr    Low   High
  ---------------------------------------------------------------------------------------------------------
  CC-Pump-1                0.00           0      0.00      0.00      0.00     0.000      0.00    0.0    0.0
  CC-Pump-2                0.00           0      0.00      0.00      0.00     0.000      0.00    0.0    0.0
  
  
  ***************************
  Link Pollutant Load Summary
  ***************************
  
  ------------------------------------------------------------------------------------------
                                 COD         NH3-N            TN            TP            SS
  Link                            kg            kg            kg            kg            kg
  ------------------------------------------------------------------------------------------
  WSL2038                     23.753         0.000         0.000         0.000         0.000
  WSL2039                     28.893         0.000         0.000         0.000         0.000
  WSL2041                     26.511         0.000         0.000         0.000         0.000
  WSL2294                     72.143         0.000         0.000         0.000         0.000
  WSL2295                     64.626         0.000         0.000         0.000         0.000
  WSL2296                     64.702         0.000         0.000         0.000         0.000
  WSL2297                     62.989         0.000         0.000         0.000         0.000
  WSL2298                     61.854         0.000         0.000         0.000         0.000
  WSL2301                     60.879         0.000         0.000         0.000         0.000
  WSL2302                     60.948         0.000         0.000         0.000         0.000
  WSL2441                     78.400         0.000         0.000         0.000         0.000
  WSL2442                     47.292         0.000         0.000         0.000         0.000
  WSL2443                     45.254         0.000         0.000         0.000         0.000
  WSL2444                     44.141         0.000         0.000         0.000         0.000
  WSL2446                     43.401         0.000         0.000         0.000         0.000
  WSL2447                     42.760         0.000         0.000         0.000         0.000
  WSL2448                     42.483         0.000         0.000         0.000         0.000
  WSL2449                     41.923         0.000         0.000         0.000         0.000
  WSL2450                     41.506         0.000         0.000         0.000         0.000
  WSL2451                     41.255         0.000         0.000         0.000         0.000
  WSL2452                     41.490         0.000         0.000         0.000         0.000
  WSL2454                     41.134         0.000         0.000         0.000         0.000
  WSL2478                     40.949         0.000         0.000         0.000         0.000
  WSL2479                     51.973         0.000         0.000         0.000         0.000
  WSL2480                     47.969         0.000         0.000         0.000         0.000
  WSL2482                     44.118         0.000         0.000         0.000         0.000
  WSL2484                     31.815         0.000         0.000         0.000         0.000
  WSL2493                     47.375         0.000         0.000         0.000         0.000
  8                           74.278         0.000         0.000         0.000         0.000
  19                           0.000         0.000         0.000         0.000         0.000
  17                          55.532         0.000         0.000         0.000         0.000
  CC-Pump-1                    0.000         0.000         0.000         0.000         0.000
  CC-Pump-2                    0.000         0.000         0.000         0.000         0.000
  

  Analysis begun on:  Thu Aug 15 18:09:32 2019
  Analysis ended on:  Thu Aug 15 18:09:33 2019
  Total elapsed time: 00:00:01