
  EPA STORM WATER MANAGEMENT MODEL - VERSION 5.1 (Build 5.2.0.dev5)
  --------------------------------------------------------------

  
  *********************************************************
  NOTE: The summary statistics displayed in this report are
  based on results found at every computational time step,  
  not just on results from each reporting time step.
  *********************************************************
  
  ****************
  Analysis Options
  ****************
  Flow Units ............... MLD
  Process Models:
    Rainfall/Runoff ........ YES
    RDII ................... NO
    Snowmelt ............... NO
    Groundwater ............ NO
    Flow Routing ........... YES
    Ponding Allowed ........ NO
    Water Quality .......... YES
  Infiltration Method ...... GREEN_AMPT
  Flow Routing Method ...... DYNWAVE
  Surcharge Method ......... EXTRAN
  Starting Date ............ 08/28/2015 08:00:00
  Ending Date .............. 08/28/2015 11:50:00
  Antecedent Dry Days ...... 4.0
  Report Time Step ......... 00:01:00
  Wet Time Step ............ 00:01:00
  Dry Time Step ............ 00:01:00
  Routing Time Step ........ 5.00 sec
  Variable Time Step ....... YES
  Maximum Trials ........... 8
  Number of Threads ........ 1
  Head Tolerance ........... 0.001500 m
  
  
  **************************        Volume         Depth
  Runoff Quantity Continuity     hectare-m            mm
  **************************     ---------       -------
  Total Precipitation ......         0.861        13.915
  Evaporation Loss .........         0.000         0.000
  Infiltration Loss ........         0.423         6.844
  Surface Runoff ...........         0.165         2.668
  Final Storage ............         0.272         4.405
  Continuity Error (%) .....        -0.008
  
  
  **************************           COD         NH3-N            TN            TP            SS
  Runoff Quality Continuity             kg            kg            kg            kg            kg
  **************************    ----------    ----------    ----------    ----------    ----------
  Initial Buildup ..........      2504.640         0.000         0.000         0.000         0.000
  Surface Buildup ..........        20.374         0.000         0.000         0.000         0.000
  Wet Deposition ...........         0.000         0.000         0.000         0.000         0.000
  Sweeping Removal .........         0.000         0.000         0.000         0.000         0.000
  Infiltration Loss ........        58.809         0.000         0.000         0.000         0.000
  BMP Removal ..............         0.000         0.000         0.000         0.000         0.000
  Surface Runoff ...........       217.433         0.000         0.000         0.000         0.000
  Remaining Buildup ........      2247.811         0.000         0.000         0.000         0.000
  Continuity Error (%) .....         0.038         0.000         0.000         0.000         0.000
  
  
  **************************        Volume        Volume
  Flow Routing Continuity        hectare-m      10^6 ltr
  **************************     ---------     ---------
  Dry Weather Inflow .......         0.000         0.000
  Wet Weather Inflow .......         0.165         1.646
  Groundwater Inflow .......         0.000         0.000
  RDII Inflow ..............         0.000         0.000
  External Inflow ..........         0.082         0.822
  External Outflow .........         0.108         1.085
  Flooding Loss ............         0.072         0.720
  Evaporation Loss .........         0.000         0.000
  Exfiltration Loss ........         0.000         0.000
  Initial Stored Volume ....         0.000         0.000
  Final Stored Volume ......         0.062         0.619
  Continuity Error (%) .....         1.798
  
  
  **************************           COD         NH3-N            TN            TP            SS
  Quality Routing Continuity            kg            kg            kg            kg            kg
  **************************    ----------    ----------    ----------    ----------    ----------
  Dry Weather Inflow .......         0.000         0.000         0.000         0.000         0.000
  Wet Weather Inflow .......       216.937         0.000         0.000         0.000         0.000
  Groundwater Inflow .......         0.000         0.000         0.000         0.000         0.000
  RDII Inflow ..............         0.000         0.000         0.000         0.000         0.000
  External Inflow ..........       137.267         0.000         0.000         0.000         0.000
  External Outflow .........       146.299         0.000         0.000         0.000         0.000
  Flooding Loss ............        98.186         0.000         0.000         0.000         0.000
  Exfiltration Loss ........         0.000         0.000         0.000         0.000         0.000
  Mass Reacted .............         0.000         0.000         0.000         0.000         0.000
  Initial Stored Mass ......         0.000         0.000         0.000         0.000         0.000
  Final Stored Mass ........       102.044         0.000         0.000         0.000         0.000
  Continuity Error (%) .....         2.167         0.000         0.000         0.000         0.000
  
  
  *************************
  Highest Continuity Errors
  *************************
  Node WS02006230 (9.55%)
  Node WS02006115 (6.94%)
  Node WS02006116 (6.44%)
  Node WS02006229 (6.42%)
  Node WS02006110 (5.88%)
  
  
  ***************************
  Time-Step Critical Elements
  ***************************
  Link 8 (80.80%)
  Link WSL2448 (15.69%)
  
  
  ********************************
  Highest Flow Instability Indexes
  ********************************
  Link WSL2302 (4)
  Link WSL2301 (4)
  Link WSL2297 (3)
  Link WSL2296 (3)
  Link WSL2298 (3)
  
  
  *************************
  Routing Time Step Summary
  *************************
  Minimum Time Step           :     0.50 sec
  Average Time Step           :     1.36 sec
  Maximum Time Step           :     5.00 sec
  Percent in Steady State     :     0.00
  Average Iterations per Step :     2.06
  Percent Not Converging      :     0.30
  
  
  ***************************
  Subcatchment Runoff Summary
  ***************************
  
  ------------------------------------------------------------------------------------------------------------------------------
                            Total      Total      Total      Total     Imperv       Perv      Total       Total     Peak  Runoff
                           Precip      Runon       Evap      Infil     Runoff     Runoff     Runoff      Runoff   Runoff   Coeff
  Subcatchment                 mm         mm         mm         mm         mm         mm         mm    10^6 ltr      MLD
  ------------------------------------------------------------------------------------------------------------------------------
  1                         13.92      12.94       0.00       7.92       6.33       4.40      10.72        0.13     2.54   0.399
  2                         13.92       0.00       0.00       6.55       3.27       0.82       4.09        0.14     2.98   0.294
  3                         13.92       0.00       0.00       6.58       3.21       0.69       3.90        0.20     4.27   0.280
  35                        13.92       0.00       0.00       6.55       3.28       0.86       4.15        0.13     2.72   0.298
  36                        13.92       7.86       0.00       7.65       4.93       1.65       6.58        0.39     7.74   0.302
  40                        13.92       2.16       0.00       6.89       3.74       1.07       4.81        0.19     3.94   0.299
  41                        13.92       0.00       0.00       6.52       3.33       1.04       4.37        0.08     1.85   0.314
  42                        13.92       0.00       0.00       6.53       3.31       0.97       4.29        0.10     2.13   0.308
  43                        13.92       0.00       0.00       6.35       3.42       1.96       5.38        0.02     0.44   0.387
  44                        13.92     109.66       0.00      12.43      30.05      57.60      87.65        0.32     6.71   0.709
  45                        13.92       0.00       0.00       6.47       3.37       1.34       4.72        0.05     1.07   0.339
  46                        13.92       6.60       0.00       7.41       4.83       2.25       7.07        0.15     3.04   0.345
  47                        13.92       0.00       0.00       6.47       3.37       1.30       4.67        0.05     1.14   0.336
  48                        13.92       3.28       0.00       6.97       4.10       1.79       5.89        0.09     1.94   0.343
  55                        13.92       4.88       0.00       7.09       4.53       2.73       7.26        0.06     1.25   0.386
  56                        13.92       7.27       0.00       7.47       4.97       2.38       7.35        0.16     3.14   0.347
  57                        13.92       0.00       0.00       6.58       3.22       0.69       3.91        0.20     4.20   0.281
  59                        13.92       0.00       0.00       6.45       3.39       1.45       4.84        0.04     0.90   0.348
  60                        13.92      10.66       0.00       7.64       5.95       5.26      11.20        0.06     1.19   0.456
  61                        13.92       0.00       0.00       6.62       2.96       0.39       3.35        0.60    12.57   0.241
  64                        13.92       0.00       0.00       6.48       3.36       1.26       4.63        0.06     1.22   0.333
  
  
  ****************************
  Subcatchment Washoff Summary
  ****************************
  
  ------------------------------------------------------------------------------------------
                                 COD         NH3-N            TN            TP            SS
  Subcatchment                    kg            kg            kg            kg            kg
  ------------------------------------------------------------------------------------------
  1                           15.526         0.000         0.000         0.000         0.000
  2                            0.000         0.000         0.000         0.000         0.000
  3                            0.000         0.000         0.000         0.000         0.000
  35                          17.405         0.000         0.000         0.000         0.000
  36                          98.817         0.000         0.000         0.000         0.000
  40                          32.383         0.000         0.000         0.000         0.000
  41                          12.244         0.000         0.000         0.000         0.000
  42                          13.904         0.000         0.000         0.000         0.000
  43                           3.337         0.000         0.000         0.000         0.000
  44                          91.185         0.000         0.000         0.000         0.000
  45                           7.467         0.000         0.000         0.000         0.000
  46                          38.778         0.000         0.000         0.000         0.000
  47                           7.914         0.000         0.000         0.000         0.000
  48                          19.168         0.000         0.000         0.000         0.000
  55                          14.730         0.000         0.000         0.000         0.000
  56                          42.489         0.000         0.000         0.000         0.000
  57                          25.867         0.000         0.000         0.000         0.000
  59                           6.378         0.000         0.000         0.000         0.000
  60                          18.244         0.000         0.000         0.000         0.000
  61                          70.125         0.000         0.000         0.000         0.000
  64                           8.408         0.000         0.000         0.000         0.000
  ------------------------------------------------------------------------------------------
  System                     544.369         0.000         0.000         0.000         0.000
  
  
  ******************
  Node Depth Summary
  ******************
  
  ---------------------------------------------------------------------------------
                                 Average  Maximum  Maximum  Time of Max    Reported
                                   Depth    Depth      HGL   Occurrence   Max Depth
  Node                 Type       Meters   Meters   Meters  days hr:min      Meters
  ---------------------------------------------------------------------------------
  WS01000070           JUNCTION     0.00     0.00     0.00     0  00:00        0.00
  WS01000323           JUNCTION     0.00     0.00     0.00     0  00:00        0.00
  WS01000533           JUNCTION     0.00     0.00     6.86     0  00:00        0.00
  WS01005172           JUNCTION     0.00     0.00     0.00     0  00:00        0.00
  WS01005181           JUNCTION     0.00     0.00     0.00     0  00:00        0.00
  WS01009841           JUNCTION     0.00     0.00     0.00     0  00:00        0.00
  WS02000078           JUNCTION     0.00     0.00     0.00     0  00:00        0.00
  WS02000112           JUNCTION     0.00     0.00     0.00     0  00:00        0.00
  WS02000136           JUNCTION     0.00     0.00     0.00     0  00:00        0.00
  WS02004053           JUNCTION     0.00     0.00     0.00     0  00:00        0.00
  WS02004401           JUNCTION     2.05     2.30     8.30     0  02:56        2.30
  WS02005192           JUNCTION     0.35     0.44     8.31     0  02:18        0.44
  WS02005193           JUNCTION     0.39     0.49     8.31     0  02:51        0.49
  WS02005196           JUNCTION     0.37     0.46     8.31     0  02:18        0.46
  WS02006109           JUNCTION     1.46     1.69     8.31     0  03:00        1.69
  WS02006110           JUNCTION     1.48     1.71     8.31     0  03:00        1.71
  WS02006111           JUNCTION     1.49     1.73     8.31     0  03:00        1.73
  WS02006112           JUNCTION     1.94     2.19     8.31     0  03:00        2.18
  WS02006113           JUNCTION     1.48     1.72     8.31     0  03:00        1.72
  WS02006115           JUNCTION     1.96     2.20     8.30     0  03:00        2.20
  WS02006116           JUNCTION     2.01     2.26     8.30     0  03:00        2.26
  WS02006183           JUNCTION     0.00     0.00     0.00     0  00:00        0.00
  WS02006228           JUNCTION     1.43     1.66     8.31     0  03:00        1.66
  WS02006229           JUNCTION     1.39     1.62     8.31     0  03:00        1.62
  WS02006230           JUNCTION     1.33     1.56     8.31     0  02:55        1.56
  WS02006231           JUNCTION     1.20     1.41     8.31     0  02:55        1.41
  WS02006232           JUNCTION     1.08     1.28     8.31     0  03:00        1.28
  WS02006234           JUNCTION     0.96     1.15     8.31     0  03:00        1.15
  WS02006235           JUNCTION     0.96     1.14     8.31     0  03:00        1.14
  WS02006238           JUNCTION     0.95     1.13     8.31     0  03:00        1.13
  WS02006239           JUNCTION     0.92     1.10     8.31     0  03:00        1.10
  WS02006242           JUNCTION     0.84     1.01     8.31     0  03:00        1.01
  WS02006240           JUNCTION     0.85     1.02     8.31     0  03:00        1.02
  WS02006243           JUNCTION     0.73     0.89     8.31     0  03:00        0.89
  WS02006245           JUNCTION     0.67     0.82     8.31     0  03:00        0.82
  WS02006247           JUNCTION     0.66     0.80     8.31     0  03:00        0.79
  WS02006248           JUNCTION     0.58     0.71     8.30     0  02:54        0.71
  WS02006249           JUNCTION     0.58     0.70     8.30     0  02:54        0.70
  WS02006251           JUNCTION     0.52     0.63     8.30     0  02:52        0.63
  WS02006253           JUNCTION     0.41     0.50     8.30     0  02:52        0.50
  WS02618401           JUNCTION     0.00     0.00     0.00     0  00:00        0.00
  WSA1649              JUNCTION     0.00     0.00     0.00     0  00:00        0.00
  outfall-5            OUTFALL      0.08     0.11     7.78     0  02:54        0.11
  outfall-14           OUTFALL      0.07     0.10     7.76     0  02:56        0.10
  outfall-16           OUTFALL      0.00     0.00     8.39     0  00:00        0.00
  CC-storage           STORAGE      5.23     5.63     8.81     0  01:43        5.63
  
  
  *******************
  Node Inflow Summary
  *******************
  
  -------------------------------------------------------------------------------------------------
                                  Maximum  Maximum                  Lateral       Total        Flow
                                  Lateral    Total  Time of Max      Inflow      Inflow     Balance
                                   Inflow   Inflow   Occurrence      Volume      Volume       Error
  Node                 Type           MLD      MLD  days hr:min    10^6 ltr    10^6 ltr     Percent
  -------------------------------------------------------------------------------------------------
  WS01000070           JUNCTION      0.00     0.00     0  00:00           0           0       0.000 ltr
  WS01000323           JUNCTION      0.00     0.00     0  00:00           0           0       0.000 ltr
  WS01000533           JUNCTION      0.00     0.00     0  00:00           0           0       0.000 ltr
  WS01005172           JUNCTION      0.00     0.00     0  00:00           0           0       0.000 ltr
  WS01005181           JUNCTION      0.00     0.00     0  00:00           0           0       0.000 ltr
  WS01009841           JUNCTION      0.00     0.00     0  00:00           0           0       0.000 ltr
  WS02000078           JUNCTION      0.00     0.00     0  00:00           0           0       0.000 ltr
  WS02000112           JUNCTION      0.00     0.00     0  00:00           0           0       0.000 ltr
  WS02000136           JUNCTION      0.00     0.00     0  00:00           0           0       0.000 ltr
  WS02004053           JUNCTION      0.00     0.00     0  00:00           0           0       0.000 ltr
  WS02004401           JUNCTION      0.05    10.99     0  02:56      0.0086       0.517       5.707
  WS02005192           JUNCTION      4.29     4.29     0  02:47       0.212       0.212       1.098
  WS02005193           JUNCTION      0.09     4.49     0  02:47       0.014        0.24       2.859
  WS02005196           JUNCTION      0.12     4.41     0  02:46      0.0183       0.229       2.710
  WS02006109           JUNCTION      0.08     6.15     0  03:00      0.0129       0.434       6.007
  WS02006110           JUNCTION      0.08     6.22     0  03:00      0.0126       0.423       6.247
  WS02006111           JUNCTION      0.24    10.49     0  02:56      0.0352       0.569       3.832
  WS02006112           JUNCTION      0.18    10.65     0  02:56      0.0263       0.571       6.163
  WS02006113           JUNCTION      4.42    10.28     0  02:56       0.224        0.59       4.245
  WS02006115           JUNCTION      0.08    10.73     0  02:56      0.0129       0.553       7.456
  WS02006116           JUNCTION      0.24    10.93     0  02:56      0.0347       0.553       6.887
  WS02006183           JUNCTION      0.00     0.00     0  00:00           0           0       0.000 ltr
  WS02006228           JUNCTION      6.86     6.86     0  03:01       0.351        0.51       3.732
  WS02006229           JUNCTION      0.13     3.82     0  02:16      0.0193       0.254       6.855
  WS02006230           JUNCTION      0.07     3.87     0  02:16      0.0111       0.262      10.563
  WS02006231           JUNCTION      0.13     3.65     0  01:58      0.0197       0.269       6.017
  WS02006232           JUNCTION      3.06     4.65     0  02:17       0.151         0.4       4.027
  WS02006234           JUNCTION      0.14     4.77     0  02:17      0.0208       0.394       3.680
  WS02006235           JUNCTION      0.14     4.89     0  02:17      0.0215       0.388       2.168
  WS02006238           JUNCTION      0.15     5.02     0  02:17      0.0226       0.387       2.724
  WS02006239           JUNCTION      0.11     5.16     0  02:17      0.0167       0.385       4.143
  WS02006242           JUNCTION      0.08     5.31     0  02:17      0.0124       0.383       5.045
  WS02006240           JUNCTION      0.06     5.23     0  02:17     0.00952       0.381       4.510
  WS02006243           JUNCTION      0.17     5.46     0  02:17      0.0259       0.388       4.635
  WS02006245           JUNCTION      0.07     5.48     0  02:17      0.0109       0.375       3.643
  WS02006247           JUNCTION      2.68     7.34     0  03:00       0.153       0.495       2.354
  WS02006248           JUNCTION      0.12    13.19     0  02:54      0.0185       0.719       1.461
  WS02006249           JUNCTION      0.19     6.04     0  02:48      0.0275        0.35       4.177
  WS02006251           JUNCTION      1.30     5.88     0  02:47      0.0696       0.326       4.412
  WS02006253           JUNCTION      0.11     4.59     0  02:47      0.0166       0.255       2.743
  WS02618401           JUNCTION      0.00     0.00     0  00:00           0           0       0.000 ltr
  WSA1649              JUNCTION      0.00     0.00     0  00:00           0           0       0.000 ltr
  outfall-5            OUTFALL       0.00    13.19     0  02:54           0       0.602       0.000
  outfall-14           OUTFALL       0.00    10.99     0  02:56           0       0.483       0.000
  outfall-16           OUTFALL       0.00     0.00     0  00:00           0           0       0.000 ltr
  CC-storage           STORAGE      14.19    14.19     0  02:50       0.879       0.879       0.009
  
  
  **********************
  Node Surcharge Summary
  **********************
  
  Surcharging occurs when water rises above the top of the highest conduit.
  ---------------------------------------------------------------------
                                               Max. Height   Min. Depth
                                   Hours       Above Crown    Below Rim
  Node                 Type      Surcharged         Meters       Meters
  ---------------------------------------------------------------------
  WS01000070           JUNCTION        3.83          0.000        0.000
  WS01000323           JUNCTION        3.83          0.000        0.000
  WS01000533           JUNCTION        3.83          0.000        2.147
  WS01005172           JUNCTION        3.83          0.000        0.000
  WS01005181           JUNCTION        3.83          0.000        0.000
  WS01009841           JUNCTION        3.83          0.000        0.000
  WS02000078           JUNCTION        3.83          0.000        0.000
  WS02000112           JUNCTION        3.83          0.000        0.000
  WS02000136           JUNCTION        3.83          0.000        0.000
  WS02004053           JUNCTION        3.83          0.000        0.000
  WS02006109           JUNCTION        2.08          0.892        0.946
  WS02006110           JUNCTION        2.09          0.912        0.933
  WS02006111           JUNCTION        2.11          0.928        0.949
  WS02006112           JUNCTION        2.39          1.186        0.497
  WS02006113           JUNCTION        2.11          0.921        1.012
  WS02006115           JUNCTION        2.42          1.205        1.094
  WS02006116           JUNCTION        2.51          1.263        1.087
  WS02006183           JUNCTION        3.83          0.000        0.000
  WS02006228           JUNCTION        2.06          0.863        1.368
  WS02006229           JUNCTION        2.02          0.822        1.632
  WS02006231           JUNCTION        1.95          0.710        0.833
  WS02006232           JUNCTION        1.85          0.580        0.909
  WS02006234           JUNCTION        1.76          0.450        0.807
  WS02006235           JUNCTION        1.75          0.440        0.854
  WS02006238           JUNCTION        1.74          0.430        1.004
  WS02006239           JUNCTION        1.72          0.399        0.930
  WS02006242           JUNCTION        1.66          0.308        0.541
  WS02006240           JUNCTION        1.67          0.319        1.084
  WS02006243           JUNCTION        1.60          0.187        0.593
  WS02006245           JUNCTION        1.57          0.116        0.739
  WS02006247           JUNCTION        1.57          0.095        0.665
  WS02006249           JUNCTION        0.34          0.004        0.384
  WS02618401           JUNCTION        3.83          0.000        0.000
  WSA1649              JUNCTION        3.83          0.000        0.000
  
  
  *********************
  Node Flooding Summary
  *********************
  
  Flooding refers to all water that overflows a node, whether it ponds or not.
  --------------------------------------------------------------------------
                                                             Total   Maximum
                                 Maximum   Time of Max       Flood    Ponded
                        Hours       Rate    Occurrence      Volume     Depth
  Node                 Flooded       MLD   days hr:min    10^6 ltr    Meters
  --------------------------------------------------------------------------
  CC-storage              2.12     14.19      0  02:50       0.720     0.000
  
  
  **********************
  Storage Volume Summary
  **********************
  
  --------------------------------------------------------------------------------------------------
                         Average     Avg  Evap Exfil       Maximum     Max    Time of Max    Maximum
                          Volume    Pcnt  Pcnt  Pcnt        Volume    Pcnt     Occurrence    Outflow
  Storage Unit           1000 m3    Full  Loss  Loss       1000 m3    Full    days hr:min        MLD
  --------------------------------------------------------------------------------------------------
  CC-storage               0.148      93     0     0         0.159     100       0  01:43       0.00
  
  
  ***********************
  Outfall Loading Summary
  ***********************
  
  ---------------------------------------------------------------------------------------------------------------------------------
                         Flow       Avg       Max       Total         Total         Total         Total         Total         Total
                         Freq      Flow      Flow      Volume           COD         NH3-N            TN            TP            SS
  Outfall Node           Pcnt       MLD       MLD    10^6 ltr            kg            kg            kg            kg            kg
  ---------------------------------------------------------------------------------------------------------------------------------
  outfall-5             81.19      9.48     13.19       0.602        83.854         0.000         0.000         0.000         0.000
  outfall-14            81.16      7.62     10.99       0.483        62.453         0.000         0.000         0.000         0.000
  outfall-16             0.00      0.00      0.00       0.000         0.000         0.000         0.000         0.000         0.000
  ---------------------------------------------------------------------------------------------------------------------------------
  System                54.11     17.10     24.17       1.085       146.307         0.000         0.000         0.000         0.000
  
  
  ********************
  Link Flow Summary
  ********************
  
  -----------------------------------------------------------------------------
                                 Maximum  Time of Max   Maximum    Max/    Max/
                                  |Flow|   Occurrence   |Veloc|    Full    Full
  Link                 Type          MLD  days hr:min     m/sec    Flow   Depth
  -----------------------------------------------------------------------------
  WSL2038              CONDUIT      4.30     0  02:46      0.48    0.21    0.75
  WSL2039              CONDUIT      4.49     0  02:47      0.72    0.23    0.83
  WSL2041              CONDUIT      4.40     0  02:47      0.53    0.22    0.79
  WSL2294              CONDUIT      6.14     0  03:00      0.43    0.21    1.00
  WSL2295              CONDUIT      6.21     0  03:00      0.50    0.28    1.00
  WSL2296              CONDUIT     10.49     0  02:56      0.63    0.06    1.00
  WSL2297              CONDUIT     10.65     0  02:56      0.34    0.20    1.00
  WSL2298              CONDUIT     10.28     0  02:56      0.87    0.47    1.00
  WSL2301              CONDUIT     10.73     0  02:56      0.29    0.10    1.00
  WSL2302              CONDUIT     10.93     0  02:56      0.23    0.13    1.00
  WSL2441              CONDUIT      6.07     0  03:00      0.44    0.16    1.00
  WSL2442              CONDUIT      3.80     0  02:16      0.63    0.10    1.00
  WSL2443              CONDUIT      3.52     0  01:58      0.73    0.05    1.00
  WSL2444              CONDUIT      3.64     0  01:58      0.87    0.06    1.00
  WSL2446              CONDUIT      4.64     0  02:17      0.83    0.08    1.00
  WSL2447              CONDUIT      4.76     0  02:17      0.68    0.24    1.00
  WSL2448              CONDUIT      4.89     0  02:17      0.55    0.14    1.00
  WSL2449              CONDUIT      5.06     0  02:17      0.53    0.18    1.00
  WSL2450              CONDUIT      5.17     0  02:17      0.61    0.11    1.00
  WSL2451              CONDUIT      5.23     0  02:17      0.58    0.34    1.00
  WSL2452              CONDUIT      5.30     0  02:17      0.60    0.10    1.00
  WSL2454              CONDUIT      5.41     0  02:17      0.75    0.13    1.00
  WSL2478              CONDUIT      5.58     0  02:17      0.64    0.20    1.00
  WSL2479              CONDUIT      7.35     0  03:00      0.58    0.14    1.00
  WSL2480              CONDUIT      6.03     0  02:48      0.62    0.28    1.00
  WSL2482              CONDUIT      5.87     0  02:48      0.54    0.15    0.95
  WSL2484              CONDUIT      4.58     0  02:46      0.64    0.06    0.81
  WSL2493              CONDUIT      3.70     0  02:16      0.51    0.06    1.00
  8                    CONDUIT     13.19     0  02:54      5.24    0.17    0.28
  19                   CONDUIT      0.00     0  00:00      0.00    0.00    0.00
  17                   CONDUIT     10.99     0  02:56      5.02    0.14    0.26
  CC-Pump-1            PUMP         0.00     0  00:00              0.00
  CC-Pump-2            PUMP         0.00     0  00:00              0.00
  
  
  ***************************
  Flow Classification Summary
  ***************************
  
  -------------------------------------------------------------------------------------
                      Adjusted    ---------- Fraction of Time in Flow Class ---------- 
                       /Actual         Up    Down  Sub   Sup   Up    Down  Norm  Inlet 
  Conduit               Length    Dry  Dry   Dry   Crit  Crit  Crit  Crit  Ltd   Ctrl  
  -------------------------------------------------------------------------------------
  WSL2038                 1.00   0.00  0.00  0.00  1.00  0.00  0.00  0.00  0.01  0.00
  WSL2039                 1.00   0.00  0.00  0.00  1.00  0.00  0.00  0.00  0.01  0.00
  WSL2041                 1.00   0.00  0.00  0.00  1.00  0.00  0.00  0.00  0.36  0.00
  WSL2294                 1.00   0.00  0.00  0.00  1.00  0.00  0.00  0.00  0.00  0.00
  WSL2295                 1.00   0.00  0.00  0.00  1.00  0.00  0.00  0.00  0.00  0.00
  WSL2296                 1.00   0.00  0.00  0.00  1.00  0.00  0.00  0.00  0.17  0.00
  WSL2297                 1.00   0.00  0.00  0.00  1.00  0.00  0.00  0.00  0.00  0.00
  WSL2298                 1.00   0.00  0.00  0.00  0.97  0.03  0.00  0.00  0.00  0.00
  WSL2301                 1.00   0.00  0.00  0.00  1.00  0.00  0.00  0.00  0.04  0.00
  WSL2302                 1.00   0.00  0.00  0.00  1.00  0.00  0.00  0.00  0.01  0.00
  WSL2441                 1.00   0.00  0.00  0.00  1.00  0.00  0.00  0.00  0.00  0.00
  WSL2442                 1.00   0.00  0.00  0.00  1.00  0.00  0.00  0.00  0.17  0.00
  WSL2443                 1.00   0.00  0.00  0.00  1.00  0.00  0.00  0.00  0.31  0.00
  WSL2444                 1.00   0.00  0.00  0.00  0.92  0.08  0.00  0.00  0.25  0.00
  WSL2446                 1.00   0.00  0.00  0.00  0.90  0.10  0.00  0.00  0.03  0.00
  WSL2447                 1.00   0.00  0.00  0.00  1.00  0.00  0.00  0.00  0.00  0.00
  WSL2448                 1.00   0.00  0.00  0.00  1.00  0.00  0.00  0.00  0.00  0.00
  WSL2449                 1.00   0.00  0.00  0.00  1.00  0.00  0.00  0.00  0.03  0.00
  WSL2450                 1.00   0.00  0.00  0.00  1.00  0.00  0.00  0.00  0.45  0.00
  WSL2451                 1.00   0.00  0.00  0.00  1.00  0.00  0.00  0.00  0.00  0.00
  WSL2452                 1.00   0.00  0.00  0.00  1.00  0.00  0.00  0.00  0.47  0.00
  WSL2454                 1.00   0.00  0.00  0.00  1.00  0.00  0.00  0.00  0.02  0.00
  WSL2478                 1.00   0.00  0.00  0.00  1.00  0.00  0.00  0.00  0.00  0.00
  WSL2479                 1.00   0.00  0.00  0.00  1.00  0.00  0.00  0.00  0.51  0.00
  WSL2480                 1.00   0.00  0.00  0.00  1.00  0.00  0.00  0.00  0.00  0.00
  WSL2482                 1.00   0.00  0.00  0.00  1.00  0.00  0.00  0.00  0.53  0.00
  WSL2484                 1.00   0.00  0.00  0.00  1.00  0.00  0.00  0.00  0.53  0.00
  WSL2493                 1.00   0.00  0.00  0.00  1.00  0.00  0.00  0.00  0.05  0.00
  8                       1.00   0.19  0.00  0.00  0.00  0.81  0.00  0.00  0.01  0.00
  19                      1.00   1.00  0.00  0.00  0.00  0.00  0.00  0.00  0.00  0.00
  17                      1.00   0.19  0.00  0.00  0.00  0.81  0.00  0.00  0.00  0.00
  
  
  *************************
  Conduit Surcharge Summary
  *************************
  
  ----------------------------------------------------------------------------
                                                           Hours        Hours 
                         --------- Hours Full --------   Above Full   Capacity
  Conduit                Both Ends  Upstream  Dnstream   Normal Flow   Limited
  ----------------------------------------------------------------------------
  WSL2294                     2.08      2.08      2.09      0.01         0.01
  WSL2295                     2.09      2.09      2.11      0.01         0.01
  WSL2296                     2.11      2.11      2.74      0.01         0.01
  WSL2297                     2.39      2.39      2.42      0.01         0.01
  WSL2298                     2.11      2.11      2.11      0.01         0.01
  WSL2301                     2.42      2.42      2.51      0.01         0.01
  WSL2302                     2.51      2.51      2.59      0.01         0.01
  WSL2441                     2.06      2.06      2.08      0.01         0.01
  WSL2442                     2.06      2.06      2.10      0.01         0.01
  WSL2443                     1.95      1.95      2.06      0.01         0.01
  WSL2444                     1.85      1.85      1.95      0.01         0.01
  WSL2446                     1.76      1.76      1.85      0.01         0.01
  WSL2447                     1.75      1.75      1.76      0.01         0.01
  WSL2448                     1.74      1.74      1.75      0.01         0.01
  WSL2449                     1.72      1.72      1.74      0.01         0.01
  WSL2450                     1.67      1.67      1.72      0.01         0.01
  WSL2451                     1.66      1.66      1.67      0.01         0.01
  WSL2452                     1.60      1.60      1.66      0.01         0.01
  WSL2454                     1.57      1.57      1.60      0.01         0.01
  WSL2478                     1.57      1.57      1.57      0.01         0.01
  WSL2479                     0.54      0.54      1.57      0.01         0.01
  WSL2480                     0.34      0.34      0.54      0.01         0.01
  WSL2482                     0.01      0.01      0.34      0.01         0.01
  WSL2493                     2.02      2.02      2.06      0.01         0.01
  
  
  ***************
  Pumping Summary
  ***************
  
  ---------------------------------------------------------------------------------------------------------
                                                  Min       Avg       Max     Total     Power    % Time Off
                        Percent   Number of      Flow      Flow      Flow    Volume     Usage    Pump Curve
  Pump                 Utilized   Start-Ups       MLD       MLD       MLD  10^6 ltr     Kw-hr    Low   High
  ---------------------------------------------------------------------------------------------------------
  CC-Pump-1                0.00           0      0.00      0.00      0.00     0.000      0.00    0.0    0.0
  CC-Pump-2                0.00           0      0.00      0.00      0.00     0.000      0.00    0.0    0.0
  
  
  ***************************
  Link Pollutant Load Summary
  ***************************
  
  ------------------------------------------------------------------------------------------
                                 COD         NH3-N            TN            TP            SS
  Link                            kg            kg            kg            kg            kg
  ------------------------------------------------------------------------------------------
  WSL2038                     28.653         0.000         0.000         0.000         0.000
  WSL2039                     33.702         0.000         0.000         0.000         0.000
  WSL2041                     31.439         0.000         0.000         0.000         0.000
  WSL2294                     84.413         0.000         0.000         0.000         0.000
  WSL2295                     76.329         0.000         0.000         0.000         0.000
  WSL2296                     75.052         0.000         0.000         0.000         0.000
  WSL2297                     71.859         0.000         0.000         0.000         0.000
  WSL2298                     72.809         0.000         0.000         0.000         0.000
  WSL2301                     68.916         0.000         0.000         0.000         0.000
  WSL2302                     67.852         0.000         0.000         0.000         0.000
  WSL2441                     91.089         0.000         0.000         0.000         0.000
  WSL2442                     48.051         0.000         0.000         0.000         0.000
  WSL2443                     45.959         0.000         0.000         0.000         0.000
  WSL2444                     44.710         0.000         0.000         0.000         0.000
  WSL2446                     43.896         0.000         0.000         0.000         0.000
  WSL2447                     43.091         0.000         0.000         0.000         0.000
  WSL2448                     42.622         0.000         0.000         0.000         0.000
  WSL2449                     41.877         0.000         0.000         0.000         0.000
  WSL2450                     41.304         0.000         0.000         0.000         0.000
  WSL2451                     40.862         0.000         0.000         0.000         0.000
  WSL2452                     40.977         0.000         0.000         0.000         0.000
  WSL2454                     40.363         0.000         0.000         0.000         0.000
  WSL2478                     40.001         0.000         0.000         0.000         0.000
  WSL2479                     54.037         0.000         0.000         0.000         0.000
  WSL2480                     55.424         0.000         0.000         0.000         0.000
  WSL2482                     51.583         0.000         0.000         0.000         0.000
  WSL2484                     36.571         0.000         0.000         0.000         0.000
  WSL2493                     48.876         0.000         0.000         0.000         0.000
  8                           83.854         0.000         0.000         0.000         0.000
  19                           0.000         0.000         0.000         0.000         0.000
  17                          62.453         0.000         0.000         0.000         0.000
  CC-Pump-1                    0.000         0.000         0.000         0.000         0.000
  CC-Pump-2                    0.000         0.000         0.000         0.000         0.000
  

  Analysis begun on:  Thu Aug 15 18:09:49 2019
  Analysis ended on:  Thu Aug 15 18:09:49 2019
  Total elapsed time: < 1 sec