
  EPA STORM WATER MANAGEMENT MODEL - VERSION 5.1 (Build 5.2.0.dev5)
  --------------------------------------------------------------

  
  *********************************************************
  NOTE: The summary statistics displayed in this report are
  based on results found at every computational time step,  
  not just on results from each reporting time step.
  *********************************************************
  
  ****************
  Analysis Options
  ****************
  Flow Units ............... MLD
  Process Models:
    Rainfall/Runoff ........ YES
    RDII ................... NO
    Snowmelt ............... NO
    Groundwater ............ NO
    Flow Routing ........... YES
    Ponding Allowed ........ NO
    Water Quality .......... YES
  Infiltration Method ...... GREEN_AMPT
  Flow Routing Method ...... DYNWAVE
  Surcharge Method ......... EXTRAN
  Starting Date ............ 08/28/2015 08:00:00
  Ending Date .............. 08/28/2015 11:50:00
  Antecedent Dry Days ...... 4.0
  Report Time Step ......... 00:01:00
  Wet Time Step ............ 00:01:00
  Dry Time Step ............ 00:01:00
  Routing Time Step ........ 5.00 sec
  Variable Time Step ....... YES
  Maximum Trials ........... 8
  Number of Threads ........ 1
  Head Tolerance ........... 0.001500 m
  
  
  **************************        Volume         Depth
  Runoff Quantity Continuity     hectare-m            mm
  **************************     ---------       -------
  Total Precipitation ......         1.105        17.869
  Evaporation Loss .........         0.000         0.000
  Infiltration Loss ........         0.470         7.602
  Surface Runoff ...........         0.231         3.742
  Final Storage ............         0.404         6.526
  Continuity Error (%) .....        -0.007
  
  
  **************************           COD         NH3-N            TN            TP            SS
  Runoff Quality Continuity             kg            kg            kg            kg            kg
  **************************    ----------    ----------    ----------    ----------    ----------
  Initial Buildup ..........      2504.640         0.000         0.000         0.000         0.000
  Surface Buildup ..........        19.924         0.000         0.000         0.000         0.000
  Wet Deposition ...........         0.000         0.000         0.000         0.000         0.000
  Sweeping Removal .........         0.000         0.000         0.000         0.000         0.000
  Infiltration Loss ........        80.779         0.000         0.000         0.000         0.000
  BMP Removal ..............         0.000         0.000         0.000         0.000         0.000
  Surface Runoff ...........       367.233         0.000         0.000         0.000         0.000
  Remaining Buildup ........      2074.745         0.000         0.000         0.000         0.000
  Continuity Error (%) .....         0.072         0.000         0.000         0.000         0.000
  
  
  **************************        Volume        Volume
  Flow Routing Continuity        hectare-m      10^6 ltr
  **************************     ---------     ---------
  Dry Weather Inflow .......         0.000         0.000
  Wet Weather Inflow .......         0.231         2.309
  Groundwater Inflow .......         0.000         0.000
  RDII Inflow ..............         0.000         0.000
  External Inflow ..........         0.082         0.822
  External Outflow .........         0.153         1.534
  Flooding Loss ............         0.094         0.937
  Evaporation Loss .........         0.000         0.000
  Exfiltration Loss ........         0.000         0.000
  Initial Stored Volume ....         0.000         0.000
  Final Stored Volume ......         0.062         0.620
  Continuity Error (%) .....         1.276
  
  
  **************************           COD         NH3-N            TN            TP            SS
  Quality Routing Continuity            kg            kg            kg            kg            kg
  **************************    ----------    ----------    ----------    ----------    ----------
  Dry Weather Inflow .......         0.000         0.000         0.000         0.000         0.000
  Wet Weather Inflow .......       366.263         0.000         0.000         0.000         0.000
  Groundwater Inflow .......         0.000         0.000         0.000         0.000         0.000
  RDII Inflow ..............         0.000         0.000         0.000         0.000         0.000
  External Inflow ..........       137.271         0.000         0.000         0.000         0.000
  External Outflow .........       229.588         0.000         0.000         0.000         0.000
  Flooding Loss ............       144.628         0.000         0.000         0.000         0.000
  Exfiltration Loss ........         0.000         0.000         0.000         0.000         0.000
  Mass Reacted .............         0.000         0.000         0.000         0.000         0.000
  Initial Stored Mass ......         0.000         0.000         0.000         0.000         0.000
  Final Stored Mass ........       121.947         0.000         0.000         0.000         0.000
  Continuity Error (%) .....         1.464         0.000         0.000         0.000         0.000
  
  
  *************************
  Highest Continuity Errors
  *************************
  Node WS02006230 (8.82%)
  Node WS02006229 (5.81%)
  Node WS02006231 (5.14%)
  Node WS02006115 (4.99%)
  Node WS02006116 (4.61%)
  
  
  ***************************
  Time-Step Critical Elements
  ***************************
  Link 8 (84.42%)
  Link WSL2448 (12.87%)
  
  
  ********************************
  Highest Flow Instability Indexes
  ********************************
  Link WSL2302 (3)
  Link WSL2301 (3)
  Link WSL2297 (3)
  Link WSL2296 (2)
  Link WSL2298 (2)
  
  
  *************************
  Routing Time Step Summary
  *************************
  Minimum Time Step           :     0.36 sec
  Average Time Step           :     1.20 sec
  Maximum Time Step           :     5.00 sec
  Percent in Steady State     :     0.00
  Average Iterations per Step :     2.07
  Percent Not Converging      :     0.35
  
  
  ***************************
  Subcatchment Runoff Summary
  ***************************
  
  ------------------------------------------------------------------------------------------------------------------------------
                            Total      Total      Total      Total     Imperv       Perv      Total       Total     Peak  Runoff
                           Precip      Runon       Evap      Infil     Runoff     Runoff     Runoff      Runoff   Runoff   Coeff
  Subcatchment                 mm         mm         mm         mm         mm         mm         mm    10^6 ltr      MLD
  ------------------------------------------------------------------------------------------------------------------------------
  1                         17.87      18.74       0.00       8.87       8.63       7.37      16.00        0.19     4.54   0.437
  2                         17.87       0.00       0.00       7.26       4.23       1.45       5.67        0.19     5.13   0.317
  3                         17.87       0.00       0.00       7.29       4.16       1.21       5.37        0.27     7.22   0.301
  35                        17.87       0.00       0.00       7.25       4.24       1.51       5.75        0.17     4.70   0.322
  36                        17.87      11.08       0.00       8.57       6.59       2.83       9.42        0.56    13.17   0.325
  40                        17.87       3.02       0.00       7.65       4.88       1.85       6.74        0.26     6.80   0.322
  41                        17.87       0.00       0.00       7.20       4.29       1.81       6.10        0.12     3.26   0.342
  42                        17.87       0.00       0.00       7.22       4.28       1.70       5.97        0.14     3.72   0.334
  43                        17.87       0.00       0.00       6.96       4.41       3.29       7.69        0.03     0.83   0.430
  44                        17.87     156.73       0.00      13.92      42.51      86.84     129.35        0.48    10.19   0.741
  45                        17.87       0.00       0.00       7.13       4.35       2.30       6.65        0.07     1.94   0.372
  46                        17.87       9.38       0.00       8.26       6.42       3.81      10.23        0.22     5.48   0.375
  47                        17.87       0.00       0.00       7.14       4.34       2.24       6.58        0.07     2.07   0.368
  48                        17.87       4.61       0.00       7.73       5.38       3.05       8.42        0.13     3.52   0.375
  55                        17.87       6.90       0.00       7.85       5.98       4.55      10.53        0.09     2.33   0.425
  56                        17.87      10.31       0.00       8.34       6.63       4.03      10.66        0.23     5.65   0.378
  57                        17.87       0.00       0.00       7.29       4.17       1.22       5.39        0.27     7.10   0.302
  59                        17.87       0.00       0.00       7.10       4.36       2.48       6.84        0.06     1.65   0.383
  60                        17.87      14.99       0.00       8.46       7.95       8.46      16.42        0.09     2.19   0.500
  61                        17.87       0.00       0.00       7.36       3.87       0.69       4.56        0.82    20.43   0.255
  64                        17.87       0.00       0.00       7.15       4.34       2.18       6.51        0.08     2.20   0.365
  
  
  ****************************
  Subcatchment Washoff Summary
  ****************************
  
  ------------------------------------------------------------------------------------------
                                 COD         NH3-N            TN            TP            SS
  Subcatchment                    kg            kg            kg            kg            kg
  ------------------------------------------------------------------------------------------
  1                           28.938         0.000         0.000         0.000         0.000
  2                            0.000         0.000         0.000         0.000         0.000
  3                            0.000         0.000         0.000         0.000         0.000
  35                          30.055         0.000         0.000         0.000         0.000
  36                         171.000         0.000         0.000         0.000         0.000
  40                          56.324         0.000         0.000         0.000         0.000
  41                          21.341         0.000         0.000         0.000         0.000
  42                          24.151         0.000         0.000         0.000         0.000
  43                           5.928         0.000         0.000         0.000         0.000
  44                         149.650         0.000         0.000         0.000         0.000
  45                          13.175         0.000         0.000         0.000         0.000
  46                          67.450         0.000         0.000         0.000         0.000
  47                          13.945         0.000         0.000         0.000         0.000
  48                          33.716         0.000         0.000         0.000         0.000
  55                          25.440         0.000         0.000         0.000         0.000
  56                          72.508         0.000         0.000         0.000         0.000
  57                          44.255         0.000         0.000         0.000         0.000
  59                          11.286         0.000         0.000         0.000         0.000
  60                          27.641         0.000         0.000         0.000         0.000
  61                         118.949         0.000         0.000         0.000         0.000
  64                          14.796         0.000         0.000         0.000         0.000
  ------------------------------------------------------------------------------------------
  System                     930.549         0.000         0.000         0.000         0.000
  
  
  ******************
  Node Depth Summary
  ******************
  
  ---------------------------------------------------------------------------------
                                 Average  Maximum  Maximum  Time of Max    Reported
                                   Depth    Depth      HGL   Occurrence   Max Depth
  Node                 Type       Meters   Meters   Meters  days hr:min      Meters
  ---------------------------------------------------------------------------------
  WS01000070           JUNCTION     0.00     0.00     0.00     0  00:00        0.00
  WS01000323           JUNCTION     0.00     0.00     0.00     0  00:00        0.00
  WS01000533           JUNCTION     0.00     0.00     6.86     0  00:00        0.00
  WS01005172           JUNCTION     0.00     0.00     0.00     0  00:00        0.00
  WS01005181           JUNCTION     0.00     0.00     0.00     0  00:00        0.00
  WS01009841           JUNCTION     0.00     0.00     0.00     0  00:00        0.00
  WS02000078           JUNCTION     0.00     0.00     0.00     0  00:00        0.00
  WS02000112           JUNCTION     0.00     0.00     0.00     0  00:00        0.00
  WS02000136           JUNCTION     0.00     0.00     0.00     0  00:00        0.00
  WS02004053           JUNCTION     0.00     0.00     0.00     0  00:00        0.00
  WS02004401           JUNCTION     2.10     2.33     8.33     0  03:01        2.33
  WS02005192           JUNCTION     0.38     0.48     8.35     0  03:01        0.48
  WS02005193           JUNCTION     0.42     0.53     8.35     0  03:01        0.53
  WS02005196           JUNCTION     0.39     0.50     8.35     0  03:01        0.50
  WS02006109           JUNCTION     1.50     1.74     8.36     0  03:00        1.74
  WS02006110           JUNCTION     1.52     1.75     8.35     0  03:00        1.75
  WS02006111           JUNCTION     1.54     1.76     8.34     0  03:00        1.76
  WS02006112           JUNCTION     1.98     2.22     8.34     0  03:00        2.22
  WS02006113           JUNCTION     1.53     1.76     8.35     0  03:00        1.76
  WS02006115           JUNCTION     2.00     2.23     8.33     0  03:00        2.23
  WS02006116           JUNCTION     2.06     2.29     8.33     0  03:01        2.29
  WS02006183           JUNCTION     0.00     0.00     0.00     0  00:00        0.00
  WS02006228           JUNCTION     1.48     1.71     8.36     0  03:00        1.71
  WS02006229           JUNCTION     1.44     1.67     8.36     0  03:00        1.67
  WS02006230           JUNCTION     1.38     1.61     8.36     0  03:01        1.61
  WS02006231           JUNCTION     1.24     1.46     8.36     0  03:01        1.46
  WS02006232           JUNCTION     1.12     1.33     8.36     0  03:01        1.33
  WS02006234           JUNCTION     1.00     1.20     8.36     0  03:01        1.20
  WS02006235           JUNCTION     1.00     1.18     8.35     0  03:01        1.18
  WS02006238           JUNCTION     0.99     1.17     8.35     0  03:01        1.17
  WS02006239           JUNCTION     0.96     1.14     8.35     0  03:01        1.14
  WS02006242           JUNCTION     0.88     1.05     8.35     0  03:01        1.05
  WS02006240           JUNCTION     0.88     1.06     8.35     0  03:01        1.06
  WS02006243           JUNCTION     0.77     0.93     8.35     0  03:01        0.92
  WS02006245           JUNCTION     0.71     0.85     8.34     0  03:01        0.85
  WS02006247           JUNCTION     0.69     0.83     8.34     0  03:01        0.83
  WS02006248           JUNCTION     0.61     0.75     8.34     0  03:01        0.75
  WS02006249           JUNCTION     0.61     0.74     8.34     0  03:01        0.74
  WS02006251           JUNCTION     0.55     0.67     8.34     0  03:01        0.67
  WS02006253           JUNCTION     0.43     0.55     8.35     0  03:01        0.54
  WS02618401           JUNCTION     0.00     0.00     0.00     0  00:00        0.00
  WSA1649              JUNCTION     0.00     0.00     0.00     0  00:00        0.00
  outfall-5            OUTFALL      0.09     0.15     7.81     0  03:01        0.15
  outfall-14           OUTFALL      0.08     0.13     7.79     0  03:01        0.13
  outfall-16           OUTFALL      0.00     0.00     8.39     0  00:00        0.00
  CC-storage           STORAGE      5.28     5.63     8.81     0  01:38        5.63
  
  
  *******************
  Node Inflow Summary
  *******************
  
  -------------------------------------------------------------------------------------------------
                                  Maximum  Maximum                  Lateral       Total        Flow
                                  Lateral    Total  Time of Max      Inflow      Inflow     Balance
                                   Inflow   Inflow   Occurrence      Volume      Volume       Error
  Node                 Type           MLD      MLD  days hr:min    10^6 ltr    10^6 ltr     Percent
  -------------------------------------------------------------------------------------------------
  WS01000070           JUNCTION      0.00     0.00     0  00:00           0           0       0.000 ltr
  WS01000323           JUNCTION      0.00     0.00     0  00:00           0           0       0.000 ltr
  WS01000533           JUNCTION      0.00     0.00     0  00:00           0           0       0.000 ltr
  WS01005172           JUNCTION      0.00     0.00     0  00:00           0           0       0.000 ltr
  WS01005181           JUNCTION      0.00     0.00     0  00:00           0           0       0.000 ltr
  WS01009841           JUNCTION      0.00     0.00     0  00:00           0           0       0.000 ltr
  WS02000078           JUNCTION      0.00     0.00     0  00:00           0           0       0.000 ltr
  WS02000112           JUNCTION      0.00     0.00     0  00:00           0           0       0.000 ltr
  WS02000136           JUNCTION      0.00     0.00     0  00:00           0           0       0.000 ltr
  WS02004053           JUNCTION      0.00     0.00     0  00:00           0           0       0.000 ltr
  WS02004401           JUNCTION      0.05    17.57     0  03:01      0.0086       0.723       4.042
  WS02005192           JUNCTION      7.19     7.19     0  03:01       0.286       0.286       0.848
  WS02005193           JUNCTION      0.09     7.34     0  03:01       0.014       0.313       2.257
  WS02005196           JUNCTION      0.12     7.28     0  03:01      0.0183       0.302       2.120
  WS02006109           JUNCTION      0.08     9.74     0  03:01      0.0129       0.562       4.508
  WS02006110           JUNCTION      0.08     9.82     0  03:01      0.0126       0.552       4.655
  WS02006111           JUNCTION      0.24    17.09     0  03:01      0.0352       0.772       2.752
  WS02006112           JUNCTION      0.18    17.24     0  03:01      0.0263       0.775       4.417
  WS02006113           JUNCTION      7.36    16.90     0  03:01       0.299       0.793       3.070
  WS02006115           JUNCTION      0.08    17.32     0  03:01      0.0129       0.758       5.248
  WS02006116           JUNCTION      0.24    17.51     0  03:01      0.0347       0.758       4.828
  WS02006183           JUNCTION      0.00     0.00     0  00:00           0           0       0.000 ltr
  WS02006228           JUNCTION     10.34    10.34     0  03:04       0.504       0.662       2.811
  WS02006229           JUNCTION      0.13     4.79     0  02:02      0.0193       0.276       6.164
  WS02006230           JUNCTION      0.07     4.99     0  02:02      0.0111       0.287       9.669
  WS02006231           JUNCTION      0.13     4.16     0  01:56      0.0197       0.294       5.421
  WS02006232           JUNCTION      5.21     6.23     0  03:01       0.204       0.476       3.316
  WS02006234           JUNCTION      0.14     6.35     0  03:01      0.0208       0.469       3.048
  WS02006235           JUNCTION      0.14     6.47     0  03:01      0.0215       0.464       1.719
  WS02006238           JUNCTION      0.15     6.60     0  03:01      0.0226       0.465       2.204
  WS02006239           JUNCTION      0.11     6.69     0  03:01      0.0168       0.463       3.394
  WS02006242           JUNCTION      0.08     6.82     0  03:01      0.0124       0.463       4.134
  WS02006240           JUNCTION      0.06     6.75     0  03:01     0.00952        0.46       3.705
  WS02006243           JUNCTION      0.17     6.97     0  03:01      0.0259       0.469       3.805
  WS02006245           JUNCTION      0.07     7.03     0  03:01      0.0109       0.459       2.964
  WS02006247           JUNCTION      4.67    11.67     0  03:01       0.217       0.642       1.802
  WS02006248           JUNCTION      0.12    21.64     0  03:01      0.0185       0.963       1.099
  WS02006249           JUNCTION      0.19    10.03     0  03:01      0.0275       0.451       3.258
  WS02006251           JUNCTION      2.39     9.79     0  03:01      0.0966       0.426       3.410
  WS02006253           JUNCTION      0.11     7.45     0  03:01      0.0166       0.328       2.191
  WS02618401           JUNCTION      0.00     0.00     0  00:00           0           0       0.000 ltr
  WSA1649              JUNCTION      0.00     0.00     0  00:00           0           0       0.000 ltr
  outfall-5            OUTFALL       0.00    21.64     0  03:01           0       0.845       0.000
  outfall-14           OUTFALL       0.00    17.56     0  03:01           0       0.689       0.000
  outfall-16           OUTFALL       0.00     0.00     0  00:00           0           0       0.000 ltr
  CC-storage           STORAGE      21.89    21.89     0  03:01         1.1         1.1       0.000
  
  
  **********************
  Node Surcharge Summary
  **********************
  
  Surcharging occurs when water rises above the top of the highest conduit.
  ---------------------------------------------------------------------
                                               Max. Height   Min. Depth
                                   Hours       Above Crown    Below Rim
  Node                 Type      Surcharged         Meters       Meters
  ---------------------------------------------------------------------
  WS01000070           JUNCTION        3.83          0.000        0.000
  WS01000323           JUNCTION        3.83          0.000        0.000
  WS01000533           JUNCTION        3.83          0.000        2.147
  WS01005172           JUNCTION        3.83          0.000        0.000
  WS01005181           JUNCTION        3.83          0.000        0.000
  WS01009841           JUNCTION        3.83          0.000        0.000
  WS02000078           JUNCTION        3.83          0.000        0.000
  WS02000112           JUNCTION        3.83          0.000        0.000
  WS02000136           JUNCTION        3.83          0.000        0.000
  WS02004053           JUNCTION        3.83          0.000        0.000
  WS02006109           JUNCTION        2.16          0.936        0.902
  WS02006110           JUNCTION        2.17          0.953        0.892
  WS02006111           JUNCTION        2.18          0.964        0.913
  WS02006112           JUNCTION        2.42          1.218        0.465
  WS02006113           JUNCTION        2.17          0.961        0.972
  WS02006115           JUNCTION        2.44          1.235        1.064
  WS02006116           JUNCTION        2.52          1.293        1.057
  WS02006183           JUNCTION        3.83          0.000        0.000
  WS02006228           JUNCTION        2.14          0.908        1.323
  WS02006229           JUNCTION        2.11          0.868        1.586
  WS02006231           JUNCTION        2.04          0.757        0.786
  WS02006232           JUNCTION        1.96          0.628        0.861
  WS02006234           JUNCTION        1.88          0.496        0.761
  WS02006235           JUNCTION        1.88          0.485        0.809
  WS02006238           JUNCTION        1.87          0.474        0.960
  WS02006239           JUNCTION        1.86          0.442        0.887
  WS02006242           JUNCTION        1.80          0.348        0.501
  WS02006240           JUNCTION        1.81          0.360        1.043
  WS02006243           JUNCTION        1.75          0.225        0.555
  WS02006245           JUNCTION        1.72          0.153        0.702
  WS02006247           JUNCTION        1.72          0.131        0.629
  WS02006249           JUNCTION        0.62          0.039        0.349
  WS02618401           JUNCTION        3.83          0.000        0.000
  WSA1649              JUNCTION        3.83          0.000        0.000
  
  
  *********************
  Node Flooding Summary
  *********************
  
  Flooding refers to all water that overflows a node, whether it ponds or not.
  --------------------------------------------------------------------------
                                                             Total   Maximum
                                 Maximum   Time of Max       Flood    Ponded
                        Hours       Rate    Occurrence      Volume     Depth
  Node                 Flooded       MLD   days hr:min    10^6 ltr    Meters
  --------------------------------------------------------------------------
  CC-storage              2.19     21.88      0  03:01       0.937     0.000
  
  
  **********************
  Storage Volume Summary
  **********************
  
  --------------------------------------------------------------------------------------------------
                         Average     Avg  Evap Exfil       Maximum     Max    Time of Max    Maximum
                          Volume    Pcnt  Pcnt  Pcnt        Volume    Pcnt     Occurrence    Outflow
  Storage Unit           1000 m3    Full  Loss  Loss       1000 m3    Full    days hr:min        MLD
  --------------------------------------------------------------------------------------------------
  CC-storage               0.149      94     0     0         0.159     100       0  01:38       0.00
  
  
  ***********************
  Outfall Loading Summary
  ***********************
  
  ---------------------------------------------------------------------------------------------------------------------------------
                         Flow       Avg       Max       Total         Total         Total         Total         Total         Total
                         Freq      Flow      Flow      Volume           COD         NH3-N            TN            TP            SS
  Outfall Node           Pcnt       MLD       MLD    10^6 ltr            kg            kg            kg            kg            kg
  ---------------------------------------------------------------------------------------------------------------------------------
  outfall-5             84.47     12.16     21.64       0.845       131.824         0.000         0.000         0.000         0.000
  outfall-14            84.44      9.94     17.56       0.689        97.777         0.000         0.000         0.000         0.000
  outfall-16             0.00      0.00      0.00       0.000         0.000         0.000         0.000         0.000         0.000
  ---------------------------------------------------------------------------------------------------------------------------------
  System                56.30     22.09     39.17       1.534       229.601         0.000         0.000         0.000         0.000
  
  
  ********************
  Link Flow Summary
  ********************
  
  -----------------------------------------------------------------------------
                                 Maximum  Time of Max   Maximum    Max/    Max/
                                  |Flow|   Occurrence   |Veloc|    Full    Full
  Link                 Type          MLD  days hr:min     m/sec    Flow   Depth
  -----------------------------------------------------------------------------
  WSL2038              CONDUIT      7.18     0  03:01      0.51    0.36    0.82
  WSL2039              CONDUIT      7.35     0  03:01      0.78    0.38    0.89
  WSL2041              CONDUIT      7.25     0  03:01      0.57    0.36    0.86
  WSL2294              CONDUIT      9.74     0  03:01      0.43    0.33    1.00
  WSL2295              CONDUIT      9.82     0  03:01      0.50    0.44    1.00
  WSL2296              CONDUIT     17.09     0  03:01      0.63    0.10    1.00
  WSL2297              CONDUIT     17.24     0  03:01      0.34    0.33    1.00
  WSL2298              CONDUIT     16.90     0  03:01      0.87    0.78    1.00
  WSL2301              CONDUIT     17.32     0  03:01      0.29    0.16    1.00
  WSL2302              CONDUIT     17.52     0  03:01      0.26    0.21    1.00
  WSL2441              CONDUIT      9.67     0  03:01      0.44    0.25    1.00
  WSL2442              CONDUIT      4.92     0  02:02      0.63    0.13    1.00
  WSL2443              CONDUIT      4.03     0  01:56      0.73    0.06    1.00
  WSL2444              CONDUIT      4.16     0  01:56      0.88    0.07    1.00
  WSL2446              CONDUIT      6.23     0  03:01      0.84    0.11    1.00
  WSL2447              CONDUIT      6.35     0  03:01      0.72    0.33    1.00
  WSL2448              CONDUIT      6.47     0  03:01      0.59    0.18    1.00
  WSL2449              CONDUIT      6.59     0  03:01      0.56    0.23    1.00
  WSL2450              CONDUIT      6.69     0  03:01      0.65    0.14    1.00
  WSL2451              CONDUIT      6.75     0  03:01      0.63    0.44    1.00
  WSL2452              CONDUIT      6.82     0  03:01      0.64    0.13    1.00
  WSL2454              CONDUIT      6.97     0  03:01      0.79    0.16    1.00
  WSL2478              CONDUIT      7.04     0  03:01      0.68    0.25    1.00
  WSL2479              CONDUIT     11.67     0  03:01      0.61    0.22    1.00
  WSL2480              CONDUIT     10.04     0  03:01      0.66    0.46    1.00
  WSL2482              CONDUIT      9.88     0  03:01      0.58    0.26    0.98
  WSL2484              CONDUIT      7.52     0  03:01      0.68    0.11    0.87
  WSL2493              CONDUIT      4.67     0  02:02      0.51    0.08    1.00
  8                    CONDUIT     21.64     0  03:01      6.02    0.29    0.37
  19                   CONDUIT      0.00     0  00:00      0.00    0.00    0.00
  17                   CONDUIT     17.56     0  03:01      5.74    0.23    0.32
  CC-Pump-1            PUMP         0.00     0  00:00              0.00
  CC-Pump-2            PUMP         0.00     0  00:00              0.00
  
  
  ***************************
  Flow Classification Summary
  ***************************
  
  -------------------------------------------------------------------------------------
                      Adjusted    ---------- Fraction of Time in Flow Class ---------- 
                       /Actual         Up    Down  Sub   Sup   Up    Down  Norm  Inlet 
  Conduit               Length    Dry  Dry   Dry   Crit  Crit  Crit  Crit  Ltd   Ctrl  
  -------------------------------------------------------------------------------------
  WSL2038                 1.00   0.00  0.00  0.00  1.00  0.00  0.00  0.00  0.01  0.00
  WSL2039                 1.00   0.00  0.00  0.00  1.00  0.00  0.00  0.00  0.00  0.00
  WSL2041                 1.00   0.00  0.00  0.00  1.00  0.00  0.00  0.00  0.32  0.00
  WSL2294                 1.00   0.00  0.00  0.00  1.00  0.00  0.00  0.00  0.00  0.00
  WSL2295                 1.00   0.00  0.00  0.00  1.00  0.00  0.00  0.00  0.00  0.00
  WSL2296                 1.00   0.00  0.00  0.00  1.00  0.00  0.00  0.00  0.17  0.00
  WSL2297                 1.00   0.00  0.00  0.00  1.00  0.00  0.00  0.00  0.00  0.00
  WSL2298                 1.00   0.00  0.00  0.00  0.98  0.02  0.00  0.00  0.00  0.00
  WSL2301                 1.00   0.00  0.00  0.00  1.00  0.00  0.00  0.00  0.04  0.00
  WSL2302                 1.00   0.00  0.00  0.00  1.00  0.00  0.00  0.00  0.01  0.00
  WSL2441                 1.00   0.00  0.00  0.00  1.00  0.00  0.00  0.00  0.00  0.00
  WSL2442                 1.00   0.00  0.00  0.00  1.00  0.00  0.00  0.00  0.17  0.00
  WSL2443                 1.00   0.00  0.00  0.00  1.00  0.00  0.00  0.00  0.31  0.00
  WSL2444                 1.00   0.00  0.00  0.00  0.93  0.07  0.00  0.00  0.24  0.00
  WSL2446                 1.00   0.00  0.00  0.00  0.91  0.09  0.00  0.00  0.03  0.00
  WSL2447                 1.00   0.00  0.00  0.00  1.00  0.00  0.00  0.00  0.00  0.00
  WSL2448                 1.00   0.00  0.00  0.00  1.00  0.00  0.00  0.00  0.00  0.00
  WSL2449                 1.00   0.00  0.00  0.00  1.00  0.00  0.00  0.00  0.03  0.00
  WSL2450                 1.00   0.00  0.00  0.00  1.00  0.00  0.00  0.00  0.44  0.00
  WSL2451                 1.00   0.00  0.00  0.00  1.00  0.00  0.00  0.00  0.00  0.00
  WSL2452                 1.00   0.00  0.00  0.00  1.00  0.00  0.00  0.00  0.44  0.00
  WSL2454                 1.00   0.00  0.00  0.00  1.00  0.00  0.00  0.00  0.02  0.00
  WSL2478                 1.00   0.00  0.00  0.00  1.00  0.00  0.00  0.00  0.00  0.00
  WSL2479                 1.00   0.00  0.00  0.00  1.00  0.00  0.00  0.00  0.49  0.00
  WSL2480                 1.00   0.00  0.00  0.00  1.00  0.00  0.00  0.00  0.00  0.00
  WSL2482                 1.00   0.00  0.00  0.00  1.00  0.00  0.00  0.00  0.50  0.00
  WSL2484                 1.00   0.00  0.00  0.00  1.00  0.00  0.00  0.00  0.50  0.00
  WSL2493                 1.00   0.00  0.00  0.00  1.00  0.00  0.00  0.00  0.05  0.00
  8                       1.00   0.16  0.00  0.00  0.00  0.84  0.00  0.00  0.01  0.00
  19                      1.00   1.00  0.00  0.00  0.00  0.00  0.00  0.00  0.00  0.00
  17                      1.00   0.16  0.00  0.00  0.00  0.84  0.00  0.00  0.00  0.00
  
  
  *************************
  Conduit Surcharge Summary
  *************************
  
  ----------------------------------------------------------------------------
                                                           Hours        Hours 
                         --------- Hours Full --------   Above Full   Capacity
  Conduit                Both Ends  Upstream  Dnstream   Normal Flow   Limited
  ----------------------------------------------------------------------------
  WSL2294                     2.16      2.16      2.17      0.01         0.01
  WSL2295                     2.17      2.17      2.17      0.01         0.01
  WSL2296                     2.18      2.18      2.74      0.01         0.01
  WSL2297                     2.42      2.42      2.44      0.01         0.01
  WSL2298                     2.17      2.17      2.18      0.01         0.01
  WSL2301                     2.44      2.44      2.52      0.01         0.01
  WSL2302                     2.52      2.52      2.59      0.01         0.01
  WSL2441                     2.14      2.14      2.16      0.01         0.01
  WSL2442                     2.14      2.14      2.17      0.01         0.01
  WSL2443                     2.04      2.04      2.14      0.01         0.01
  WSL2444                     1.96      1.96      2.04      0.01         0.01
  WSL2446                     1.88      1.88      1.96      0.01         0.01
  WSL2447                     1.88      1.88      1.88      0.01         0.01
  WSL2448                     1.87      1.87      1.88      0.01         0.01
  WSL2449                     1.86      1.86      1.87      0.01         0.01
  WSL2450                     1.81      1.81      1.86      0.01         0.01
  WSL2451                     1.80      1.80      1.81      0.01         0.01
  WSL2452                     1.75      1.75      1.80      0.01         0.01
  WSL2454                     1.72      1.72      1.75      0.01         0.01
  WSL2478                     1.72      1.72      1.72      0.01         0.01
  WSL2479                     0.94      0.94      1.72      0.01         0.01
  WSL2480                     0.62      0.62      0.94      0.01         0.01
  WSL2482                     0.01      0.01      0.62      0.01         0.01
  WSL2493                     2.11      2.11      2.14      0.01         0.01
  
  
  ***************
  Pumping Summary
  ***************
  
  ---------------------------------------------------------------------------------------------------------
                                                  Min       Avg       Max     Total     Power    % Time Off
                        Percent   Number of      Flow      Flow      Flow    Volume     Usage    Pump Curve
  Pump                 Utilized   Start-Ups       MLD       MLD       MLD  10^6 ltr     Kw-hr    Low   High
  ---------------------------------------------------------------------------------------------------------
  CC-Pump-1                0.00           0      0.00      0.00      0.00     0.000      0.00    0.0    0.0
  CC-Pump-2                0.00           0      0.00      0.00      0.00     0.000      0.00    0.0    0.0
  
  
  ***************************
  Link Pollutant Load Summary
  ***************************
  
  ------------------------------------------------------------------------------------------
                                 COD         NH3-N            TN            TP            SS
  Link                            kg            kg            kg            kg            kg
  ------------------------------------------------------------------------------------------
  WSL2038                     46.992         0.000         0.000         0.000         0.000
  WSL2039                     51.889         0.000         0.000         0.000         0.000
  WSL2041                     49.673         0.000         0.000         0.000         0.000
  WSL2294                    128.407         0.000         0.000         0.000         0.000
  WSL2295                    118.863         0.000         0.000         0.000         0.000
  WSL2296                    116.056         0.000         0.000         0.000         0.000
  WSL2297                    110.821         0.000         0.000         0.000         0.000
  WSL2298                    114.430         0.000         0.000         0.000         0.000
  WSL2301                    106.142         0.000         0.000         0.000         0.000
  WSL2302                    103.192         0.000         0.000         0.000         0.000
  WSL2441                    136.870         0.000         0.000         0.000         0.000
  WSL2442                     57.366         0.000         0.000         0.000         0.000
  WSL2443                     54.208         0.000         0.000         0.000         0.000
  WSL2444                     52.374         0.000         0.000         0.000         0.000
  WSL2446                     51.264         0.000         0.000         0.000         0.000
  WSL2447                     50.383         0.000         0.000         0.000         0.000
  WSL2448                     50.093         0.000         0.000         0.000         0.000
  WSL2449                     49.159         0.000         0.000         0.000         0.000
  WSL2450                     48.316         0.000         0.000         0.000         0.000
  WSL2451                     47.630         0.000         0.000         0.000         0.000
  WSL2452                     47.476         0.000         0.000         0.000         0.000
  WSL2454                     46.956         0.000         0.000         0.000         0.000
  WSL2478                     46.659         0.000         0.000         0.000         0.000
  WSL2479                     73.786         0.000         0.000         0.000         0.000
  WSL2480                     83.992         0.000         0.000         0.000         0.000
  WSL2482                     80.259         0.000         0.000         0.000         0.000
  WSL2484                     54.770         0.000         0.000         0.000         0.000
  WSL2493                     58.713         0.000         0.000         0.000         0.000
  8                          131.824         0.000         0.000         0.000         0.000
  19                           0.000         0.000         0.000         0.000         0.000
  17                          97.777         0.000         0.000         0.000         0.000
  CC-Pump-1                    0.000         0.000         0.000         0.000         0.000
  CC-Pump-2                    0.000         0.000         0.000         0.000         0.000
  

  Analysis begun on:  Thu Aug 15 18:10:26 2019
  Analysis ended on:  Thu Aug 15 18:10:26 2019
  Total elapsed time: < 1 sec