
  EPA STORM WATER MANAGEMENT MODEL - VERSION 5.1 (Build 5.2.0.dev1)
  --------------------------------------------------------------

  
  *********************************************************
  NOTE: The summary statistics displayed in this report are
  based on results found at every computational time step,  
  not just on results from each reporting time step.
  *********************************************************
  
  ****************
  Analysis Options
  ****************
  Flow Units ............... MLD
  Process Models:
    Rainfall/Runoff ........ YES
    RDII ................... NO
    Snowmelt ............... NO
    Groundwater ............ NO
    Flow Routing ........... YES
    Ponding Allowed ........ NO
    Water Quality .......... YES
  Infiltration Method ...... GREEN_AMPT
  Flow Routing Method ...... DYNWAVE
  Starting Date ............ 08/28/2015 08:00:00
  Ending Date .............. 08/28/2015 12:00:00
  Antecedent Dry Days ...... 4.0
  Report Time Step ......... 00:01:00
  Wet Time Step ............ 00:01:00
  Dry Time Step ............ 00:01:00
  Routing Time Step ........ 5.00 sec
  Variable Time Step ....... YES
  Maximum Trials ........... 8
  Number of Threads ........ 1
  Head Tolerance ........... 0.001500 m
  
  
  **************************        Volume         Depth
  Runoff Quantity Continuity     hectare-m            mm
  **************************     ---------       -------
  Total Precipitation ......        13.276        47.068
  Evaporation Loss .........         0.000         0.000
  Infiltration Loss ........         4.816        17.073
  Surface Runoff ...........         5.282        18.726
  Final Storage ............         3.184        11.290
  Continuity Error (%) .....        -0.046
  
  
  **************************           COD         NH3-N            TN            TP            SS
  Runoff Quality Continuity             kg            kg            kg            kg            kg
  **************************    ----------    ----------    ----------    ----------    ----------
  Initial Buildup ..........     13074.240         0.000         0.000         0.000         0.000
  Surface Buildup ..........       100.807         0.000         0.000         0.000         0.000
  Wet Deposition ...........         0.000         0.000         0.000         0.000         0.000
  Sweeping Removal .........         0.000         0.000         0.000         0.000         0.000
  Infiltration Loss ........       414.060         0.000         0.000         0.000         0.000
  BMP Removal ..............         0.000         0.000         0.000         0.000         0.000
  Surface Runoff ...........     10416.911         0.000         0.000         0.000         0.000
  Remaining Buildup ........      2350.057         0.000         0.000         0.000         0.000
  Continuity Error (%) .....        -0.045         0.000         0.000         0.000         0.000
  
  
  **************************        Volume        Volume
  Flow Routing Continuity        hectare-m      10^6 ltr
  **************************     ---------     ---------
  Dry Weather Inflow .......         0.000         0.000
  Wet Weather Inflow .......         5.272        52.725
  Groundwater Inflow .......         0.000         0.000
  RDII Inflow ..............         0.000         0.000
  External Inflow ..........         0.561         5.611
  External Outflow .........         2.697        26.971
  Flooding Loss ............         3.029        30.287
  Evaporation Loss .........         0.000         0.000
  Exfiltration Loss ........         0.000         0.000
  Initial Stored Volume ....         0.000         0.000
  Final Stored Volume ......         0.164         1.640
  Continuity Error (%) .....        -0.963
  
  
  **************************           COD         NH3-N            TN            TP            SS
  Quality Routing Continuity            kg            kg            kg            kg            kg
  **************************    ----------    ----------    ----------    ----------    ----------
  Dry Weather Inflow .......         0.000         0.000         0.000         0.000         0.000
  Wet Weather Inflow .......     10411.433         0.000         0.000         0.000         0.000
  Groundwater Inflow .......         0.000         0.000         0.000         0.000         0.000
  RDII Inflow ..............         0.000         0.000         0.000         0.000         0.000
  External Inflow ..........       936.995         0.000         0.000         0.000         0.000
  External Outflow .........      4654.434         0.000         0.000         0.000         0.000
  Flooding Loss ............      6523.745         0.000         0.000         0.000         0.000
  Exfiltration Loss ........         0.000         0.000         0.000         0.000         0.000
  Mass Reacted .............         0.000         0.000         0.000         0.000         0.000
  Initial Stored Mass ......         0.000         0.000         0.000         0.000         0.000
  Final Stored Mass ........        81.855         0.000         0.000         0.000         0.000
  Continuity Error (%) .....         0.779         0.000         0.000         0.000         0.000
  
  
  *************************
  Highest Continuity Errors
  *************************
  Node WS02006242 (1.41%)
  Node WS02006243 (1.27%)
  Node WS02006240 (1.26%)
  Node WS02006239 (1.18%)
  Node WS02003059 (1.05%)
  
  
  ***************************
  Time-Step Critical Elements
  ***************************
  Link 8 (85.33%)
  Link WSL2448 (4.85%)
  Link WSL1477 (4.28%)
  Link XRpipe (2.42%)
  
  
  ********************************
  Highest Flow Instability Indexes
  ********************************
  Link WSL1477 (61)
  Link WSL1516 (58)
  Link WSL1521 (49)
  Link WSL1476 (33)
  Link WSL1515 (14)
  
  
  *************************
  Routing Time Step Summary
  *************************
  Minimum Time Step           :     0.04 sec
  Average Time Step           :     0.83 sec
  Maximum Time Step           :     5.00 sec
  Percent in Steady State     :    -0.00
  Average Iterations per Step :     2.62
  Percent Not Converging      :     6.27
  
  
  ***************************
  Subcatchment Runoff Summary
  ***************************
  
  --------------------------------------------------------------------------------------------------------
                            Total      Total      Total      Total      Total       Total     Peak  Runoff
                           Precip      Runon       Evap      Infil     Runoff      Runoff   Runoff   Coeff
  Subcatchment                 mm         mm         mm         mm         mm    10^6 ltr      MLD
  --------------------------------------------------------------------------------------------------------
  1                         47.07     103.71       0.00      16.27     106.08        1.28    16.33   0.704
  2                         47.07       0.00       0.00      12.11      24.03        0.81    12.03   0.510
  3                         47.07       0.00       0.00      12.34      22.52        1.15    17.07   0.478
  4                         47.07       0.00       0.00      11.97      24.90        0.66     9.86   0.529
  5                         47.07      58.85       0.00      15.16      69.75        1.19    14.68   0.659
  6                         47.07       0.00       0.00      12.33      22.64        1.12    16.61   0.481
  7                         47.07       0.00       0.00      20.11      18.98       30.36   409.24   0.403
  8                         47.07       0.00       0.00      12.24      23.19        0.98    14.60   0.493
  9                         47.07      22.97       0.00      13.91      38.00        1.44    18.06   0.543
  17                        47.07       0.00       0.00      12.16      23.71        0.87    12.93   0.504
  18                        47.07       0.00       0.00      12.26      23.10        1.00    14.89   0.491
  28                        47.07      95.51       0.00      17.00      90.70        2.39    30.25   0.636
  29                        47.07      38.96       0.00      14.33      50.71        1.22    14.71   0.589
  30                        47.07      90.79       0.00      15.69     101.28        0.94    12.10   0.735
  31                        47.07       0.00       0.00      12.14      23.84        0.85    12.57   0.506
  33                        47.07       0.00       0.00      11.19      28.99        0.25     3.88   0.616
  34                        47.07      51.59       0.00      15.05      62.76        1.30    15.99   0.636
  35                        47.07       0.00       0.00      12.05      24.42        0.74    11.00   0.519
  36                        47.07      53.53       0.00      16.06      54.18        3.20    38.16   0.539
  39                        47.07       0.00       0.00      12.12      23.98        0.82    12.15   0.510
  40                        47.07      12.91       0.00      13.23      31.40        1.23    16.33   0.523
  41                        47.07       0.00       0.00      11.76      26.07        0.51     7.57   0.554
  42                        47.07       0.00       0.00      11.87      25.47        0.58     8.66   0.541
  43                        47.07       0.00       0.00      10.49      31.90        0.11     1.88   0.678
  44                        47.07     890.99       0.00      25.16     843.26        3.12    39.42   0.899
  45                        47.07       0.00       0.00      11.31      28.39        0.29     4.47   0.603
  46                        47.07      43.69       0.00      14.61      56.07        1.20    14.57   0.618
  47                        47.07       0.00       0.00      11.37      28.12        0.31     4.75   0.598
  48                        47.07      19.72       0.00      12.99      40.81        0.64     8.43   0.611
  55                        47.07      29.42       0.00      12.94      51.86        0.43     5.71   0.678
  56                        47.07      47.35       0.00      14.81      58.85        1.26    15.39   0.623
  57                        47.07       0.00       0.00      12.33      22.59        1.13    16.78   0.480
  59                        47.07       0.00       0.00      11.16      29.11        0.24     3.77   0.619
  60                        47.07      64.14       0.00      13.93      83.61        0.43     5.84   0.752
  61                        47.07       0.00       0.00      12.90      18.36        3.30    49.43   0.390
  62                        47.07       0.00       0.00      12.92      18.20        3.46    51.71   0.387
  64                        47.07       0.00       0.00      11.43      27.84        0.33     5.07   0.592
  
  
  ****************************
  Subcatchment Washoff Summary
  ****************************
  
  ------------------------------------------------------------------------------------------
                                 COD         NH3-N            TN            TP            SS
  Subcatchment                    kg            kg            kg            kg            kg
  ------------------------------------------------------------------------------------------
  1                          169.204         0.000         0.000         0.000         0.000
  2                            0.000         0.000         0.000         0.000         0.000
  3                            0.000         0.000         0.000         0.000         0.000
  4                          119.162         0.000         0.000         0.000         0.000
  5                          221.247         0.000         0.000         0.000         0.000
  6                          214.629         0.000         0.000         0.000         0.000
  7                         6430.587         0.000         0.000         0.000         0.000
  8                          185.786         0.000         0.000         0.000         0.000
  9                          275.575         0.000         0.000         0.000         0.000
  17                         162.020         0.000         0.000         0.000         0.000
  18                         189.927         0.000         0.000         0.000         0.000
  28                         442.422         0.000         0.000         0.000         0.000
  29                         221.261         0.000         0.000         0.000         0.000
  30                         172.914         0.000         0.000         0.000         0.000
  31                         156.980         0.000         0.000         0.000         0.000
  33                          40.278         0.000         0.000         0.000         0.000
  34                         236.055         0.000         0.000         0.000         0.000
  35                         134.981         0.000         0.000         0.000         0.000
  36                         630.774         0.000         0.000         0.000         0.000
  39                         151.083         0.000         0.000         0.000         0.000
  40                         232.700         0.000         0.000         0.000         0.000
  41                          87.941         0.000         0.000         0.000         0.000
  42                         102.760         0.000         0.000         0.000         0.000
  43                          16.892         0.000         0.000         0.000         0.000
  44                         625.584         0.000         0.000         0.000         0.000
  45                          47.516         0.000         0.000         0.000         0.000
  46                         210.796         0.000         0.000         0.000         0.000
  47                          51.119         0.000         0.000         0.000         0.000
  48                         109.846         0.000         0.000         0.000         0.000
  55                          69.104         0.000         0.000         0.000         0.000
  56                         222.484         0.000         0.000         0.000         0.000
  57                         217.082         0.000         0.000         0.000         0.000
  59                          38.916         0.000         0.000         0.000         0.000
  60                          70.852         0.000         0.000         0.000         0.000
  61                         705.703         0.000         0.000         0.000         0.000
  62                         740.826         0.000         0.000         0.000         0.000
  64                          55.160         0.000         0.000         0.000         0.000
  ------------------------------------------------------------------------------------------
  System                   13760.166         0.000         0.000         0.000         0.000
  
  
  ******************
  Node Depth Summary
  ******************
  
  ---------------------------------------------------------------------------------
                                 Average  Maximum  Maximum  Time of Max    Reported
                                   Depth    Depth      HGL   Occurrence   Max Depth
  Node                 Type       Meters   Meters   Meters  days hr:min      Meters
  ---------------------------------------------------------------------------------
  WS01000070           JUNCTION     0.00     0.00     0.00     0  00:00        0.00
  WS01000323           JUNCTION     0.00     0.00     0.00     0  00:00        0.00
  WS01000533           JUNCTION     0.00     0.00     6.86     0  00:00        0.00
  WS01005172           JUNCTION     0.00     0.00     0.00     0  00:00        0.00
  WS01005181           JUNCTION     0.00     0.00     0.00     0  00:00        0.00
  WS01009841           JUNCTION     0.00     0.00     0.00     0  00:00        0.00
  WS02000078           JUNCTION     0.00     0.00     0.00     0  00:00        0.00
  WS02000112           JUNCTION     0.00     0.00     0.00     0  00:00        0.00
  WS02000136           JUNCTION     0.00     0.00     0.00     0  00:00        0.00
  WS02001211           JUNCTION     0.72     0.90     5.74     0  02:05        0.89
  WS02001212           JUNCTION     0.73     1.05     5.85     0  02:05        0.93
  WS02001213           JUNCTION     0.83     1.71     6.41     0  02:05        1.10
  WS02003059           JUNCTION     0.86     3.82     8.47     0  02:02        1.05
  WS02003060           JUNCTION     0.95     1.19     5.74     0  02:02        1.17
  WS02003066           JUNCTION     0.44     0.60     5.90     0  02:58        0.57
  WS02003067           JUNCTION     0.75     1.00     6.32     0  02:44        0.97
  WS02003071           JUNCTION     0.97     1.20     5.60     0  02:07        1.19
  WS02003072           JUNCTION     0.84     1.09     5.46     0  02:03        1.09
  WS02003073           JUNCTION     0.91     2.16     6.40     0  02:45        1.18
  WS02003076           JUNCTION     0.82     1.11     5.34     0  02:01        1.01
  WS02003077           JUNCTION     0.19     0.43     5.44     0  02:51        0.40
  WS02003078           JUNCTION     0.11     0.14     7.04     0  02:05        0.14
  WS02003079           JUNCTION     0.36     0.47     7.38     0  02:05        0.46
  WS02003093           JUNCTION     0.19     0.27     7.61     0  02:05        0.27
  WS02003094           JUNCTION     0.30     0.39     7.61     0  02:04        0.39
  WS02003098           JUNCTION     0.27     0.38     7.55     0  02:04        0.38
  WS02003099           JUNCTION     0.39     0.51     7.55     0  02:05        0.51
  WS02003102           JUNCTION     0.38     0.49     7.52     0  02:04        0.49
  WS02003103           JUNCTION     0.40     0.51     7.48     0  02:04        0.51
  WS02003104           JUNCTION     0.39     0.50     7.46     0  02:05        0.50
  WS02003106           JUNCTION     0.38     0.49     7.42     0  02:05        0.49
  WS02004050           JUNCTION     0.60     0.74     4.96     0  02:08        0.73
  WS02004053           JUNCTION     0.00     0.00     0.00     0  00:00        0.00
  WS02004136           JUNCTION     0.17     0.21     6.94     0  00:01        0.18
  WS02004139           JUNCTION     0.61     0.81     5.77     0  02:04        0.77
  WS02004401           JUNCTION     1.07     1.34     7.34     0  02:45        1.33
  WS02004402           JUNCTION     1.07     1.34     7.30     0  02:45        1.33
  WS02004403           JUNCTION     1.06     1.32     7.25     0  02:45        1.31
  WS02004404           JUNCTION     1.11     1.37     7.22     0  02:45        1.36
  WS02004405           JUNCTION     1.11     1.36     7.20     0  02:45        1.34
  WS02004406           JUNCTION     1.06     1.31     7.14     0  02:45        1.29
  WS02004407           JUNCTION     0.98     1.21     7.01     0  02:45        1.19
  WS02004409           JUNCTION     0.93     1.15     6.92     0  02:45        1.13
  WS02004410           JUNCTION     0.86     1.06     6.78     0  02:45        1.04
  WS02004411           JUNCTION     0.79     0.97     6.65     0  02:14        0.96
  WS02004412           JUNCTION     0.69     0.86     6.50     0  02:14        0.85
  WS02004413           JUNCTION     0.71     0.90     6.37     0  02:44        0.90
  WS02004997           JUNCTION     6.28     6.69     8.30     0  01:53        6.69
  WS02005192           JUNCTION     0.74     2.54    10.41     0  01:45        0.96
  WS02005193           JUNCTION     0.77     3.22    11.04     0  01:45        0.98
  WS02005196           JUNCTION     0.75     2.37    10.22     0  01:45        0.97
  WS02006109           JUNCTION     1.17     1.48     8.10     0  02:45        1.48
  WS02006110           JUNCTION     1.06     1.42     8.02     0  01:51        1.34
  WS02006111           JUNCTION     0.78     1.39     7.97     0  01:51        1.05
  WS02006112           JUNCTION     1.10     1.51     7.63     0  01:51        1.38
  WS02006113           JUNCTION     0.95     1.41     8.00     0  01:51        1.22
  WS02006115           JUNCTION     1.06     1.34     7.44     0  02:45        1.33
  WS02006116           JUNCTION     1.08     1.36     7.40     0  02:45        1.35
  WS02006183           JUNCTION     0.00     0.00     0.00     0  00:00        0.00
  WS02006228           JUNCTION     1.26     1.59     8.24     0  02:46        1.57
  WS02006229           JUNCTION     1.24     1.57     8.26     0  02:46        1.56
  WS02006230           JUNCTION     1.27     1.57     8.32     0  02:46        1.56
  WS02006231           JUNCTION     1.21     1.49     8.39     0  02:46        1.48
  WS02006232           JUNCTION     1.16     1.42     8.45     0  02:46        1.41
  WS02006234           JUNCTION     1.09     1.33     8.49     0  02:46        1.32
  WS02006235           JUNCTION     1.13     1.35     8.52     0  02:46        1.34
  WS02006238           JUNCTION     1.13     1.35     8.53     0  02:46        1.34
  WS02006239           JUNCTION     1.11     1.31     8.52     0  02:45        1.31
  WS02006242           JUNCTION     1.04     1.22     8.52     0  02:46        1.22
  WS02006240           JUNCTION     1.04     1.23     8.52     0  02:46        1.23
  WS02006243           JUNCTION     0.93     1.10     8.52     0  02:23        1.09
  WS02006245           JUNCTION     0.87     1.03     8.52     0  02:25        1.02
  WS02006247           JUNCTION     0.86     1.01     8.52     0  02:36        1.00
  WS02006248           JUNCTION     0.78     0.91     8.50     0  02:16        0.91
  WS02006249           JUNCTION     0.82     1.09     8.69     0  01:45        0.97
  WS02006251           JUNCTION     0.86     1.75     9.42     0  01:45        1.05
  WS02006253           JUNCTION     0.78     2.27    10.07     0  01:45        0.98
  WS02618401           JUNCTION     0.00     0.00     0.00     0  00:00        0.00
  WS8802               JUNCTION     0.00     0.00     4.38     0  00:00        0.00
  WSA1649              JUNCTION     0.00     0.00     0.00     0  00:00        0.00
  WSF200               JUNCTION     0.45     0.64     5.74     0  02:44        0.62
  XR-Inflow            JUNCTION     6.15     6.55     8.36     0  01:19        6.55
  WS02004114           JUNCTION     6.24     6.66     8.26     0  01:52        6.65
  outfall-2            OUTFALL      0.00     0.00     7.00     0  00:00        0.00
  outfall-5            OUTFALL      0.23     0.31     7.98     0  02:16        0.31
  outfall-14           OUTFALL      0.00     0.00     7.66     0  00:00        0.00
  outfall-16           OUTFALL      0.00     0.00     8.39     0  00:00        0.00
  12                   OUTFALL      0.60     0.73     0.73     0  02:09        0.73
  XR-storage           STORAGE      7.28     7.72     8.22     0  01:19        7.72
  CC-storage           STORAGE      3.84     5.63     8.81     0  01:43        5.63
  JK-storage           STORAGE      3.30     4.80     7.80     0  01:28        4.80
  
  
  *******************
  Node Inflow Summary
  *******************
  
  -------------------------------------------------------------------------------------------------
                                  Maximum  Maximum                  Lateral       Total        Flow
                                  Lateral    Total  Time of Max      Inflow      Inflow     Balance
                                   Inflow   Inflow   Occurrence      Volume      Volume       Error
  Node                 Type           MLD      MLD  days hr:min    10^6 ltr    10^6 ltr     Percent
  -------------------------------------------------------------------------------------------------
  WS01000070           JUNCTION      0.00     0.00     0  00:00           0           0       0.000 ltr
  WS01000323           JUNCTION      0.00     0.00     0  00:00           0           0       0.000 ltr
  WS01000533           JUNCTION      0.00     0.00     0  00:00           0           0       0.000 ltr
  WS01005172           JUNCTION      0.00     0.00     0  00:00           0           0       0.000 ltr
  WS01005181           JUNCTION      0.00     0.00     0  00:00           0           0       0.000 ltr
  WS01009841           JUNCTION      0.00     0.00     0  00:00           0           0       0.000 ltr
  WS02000078           JUNCTION      0.00     0.00     0  00:00           0           0       0.000 ltr
  WS02000112           JUNCTION      0.00     0.00     0  00:00           0           0       0.000 ltr
  WS02000136           JUNCTION      0.00     0.00     0  00:00           0           0       0.000 ltr
  WS02001211           JUNCTION      0.25    48.70     0  02:07      0.0407        4.68       0.861
  WS02001212           JUNCTION      0.21    45.24     0  02:25      0.0346        4.68       0.627
  WS02001213           JUNCTION      0.30    48.16     0  02:01      0.0489         4.7       0.742
  WS02003059           JUNCTION      0.23    45.44     0  03:26      0.0378        4.71       1.059
  WS02003060           JUNCTION      0.16   218.74     0  02:20      0.0252        19.5       0.362
  WS02003066           JUNCTION      0.08   218.84     0  02:28      0.0122        14.8       0.113
  WS02003067           JUNCTION      0.26   170.14     0  02:44      0.0395        14.9       0.165
  WS02003071           JUNCTION      0.35   209.56     0  02:15      0.0538        19.5       0.363
  WS02003072           JUNCTION      0.24   207.39     0  02:13      0.0382        19.5       0.235
  WS02003073           JUNCTION      0.07   263.89     0  02:19     0.00978        21.9       0.191
  WS02003076           JUNCTION      0.72   260.47     0  02:22        0.12        21.9       0.133
  WS02003077           JUNCTION      0.04    34.16     0  02:03      0.0059        2.42      -0.015
  WS02003078           JUNCTION      0.03    40.46     0  02:05     0.00419        2.41       0.082
  WS02003079           JUNCTION      0.04    32.33     0  02:05     0.00561        2.41       0.180
  WS02003093           JUNCTION      0.02     0.26     0  01:50     0.00306     0.00618      20.151
  WS02003094           JUNCTION     18.12    18.13     0  02:02        1.44        1.45       0.487
  WS02003098           JUNCTION      0.02    18.12     0  02:04     0.00293        1.44       0.345
  WS02003099           JUNCTION      0.07    18.23     0  02:07      0.0109        1.45       0.702
  WS02003102           JUNCTION     14.63    32.25     0  02:03       0.986        2.42       0.384
  WS02003103           JUNCTION      0.02    32.22     0  02:04     0.00239        2.42       0.254
  WS02003104           JUNCTION      0.02    32.23     0  02:04     0.00302        2.41       0.217
  WS02003106           JUNCTION      0.05    32.26     0  02:04     0.00727        2.42       0.267
  WS02004050           JUNCTION      0.72   294.35     0  02:01       0.119          22       0.526
  WS02004053           JUNCTION      0.00     0.00     0  00:00           0           0       0.000 ltr
  WS02004136           JUNCTION      0.44    32.92     0  01:40      0.0703        4.61       0.066
  WS02004139           JUNCTION      0.38    39.53     0  00:01      0.0619        4.67       0.564
  WS02004401           JUNCTION      0.05    96.39     0  02:16     0.00897        9.52       0.291
  WS02004402           JUNCTION      0.22    97.40     0  02:16      0.0335        9.52       0.263
  WS02004403           JUNCTION      0.23    97.60     0  02:16      0.0349        9.53       0.231
  WS02004404           JUNCTION      0.24    97.82     0  02:16      0.0365        9.55       0.172
  WS02004405           JUNCTION      9.93   106.84     0  02:03       0.673        10.2       0.236
  WS02004406           JUNCTION     30.37   133.50     0  03:00         2.4        12.6       0.299
  WS02004407           JUNCTION      0.11   133.60     0  03:00      0.0171        12.6       0.270
  WS02004409           JUNCTION     14.87   148.03     0  02:46        1.22        13.7       0.220
  WS02004410           JUNCTION      0.15   148.07     0  02:46      0.0226        13.7       0.216
  WS02004411           JUNCTION      0.25   148.23     0  02:46      0.0379        13.7       0.196
  WS02004412           JUNCTION     16.70   163.88     0  02:20        1.13        14.8       0.164
  WS02004413           JUNCTION      0.11   166.46     0  02:15      0.0172        14.8       0.157
  WS02004997           JUNCTION      0.42    63.58     0  01:53      0.0693        8.39       0.491
  WS02005192           JUNCTION     16.90    16.90     0  01:57        1.15        1.15       0.175
  WS02005193           JUNCTION      0.09    17.95     0  01:45      0.0146        1.18       0.458
  WS02005196           JUNCTION      0.12    17.02     0  01:57       0.019        1.17       0.423
  WS02006109           JUNCTION      0.08    83.11     0  03:24      0.0135        8.37       0.294
  WS02006110           JUNCTION      0.08    83.19     0  03:24      0.0132        8.36       0.278
  WS02006111           JUNCTION      0.24    95.90     0  01:51      0.0366        9.53       0.116
  WS02006112           JUNCTION      0.18    96.05     0  02:16      0.0273        9.54       0.287
  WS02006113           JUNCTION     17.24    95.68     0  02:16        1.17        9.51       0.196
  WS02006115           JUNCTION      0.08    96.13     0  02:16      0.0134        9.53       0.321
  WS02006116           JUNCTION      0.24    96.33     0  02:16       0.036        9.54       0.299
  WS02006183           JUNCTION      0.00     0.00     0  00:00           0           0       0.000 ltr
  WS02006228           JUNCTION     39.57    83.04     0  03:24        3.14        8.38       0.218
  WS02006229           JUNCTION      0.13    61.94     0  01:49        0.02        5.25       0.306
  WS02006230           JUNCTION      0.07    62.59     0  01:50      0.0116        5.25       0.368
  WS02006231           JUNCTION      0.13    62.52     0  01:50      0.0205        5.25       0.293
  WS02006232           JUNCTION     12.12    62.39     0  01:50       0.822        5.25       0.302
  WS02006234           JUNCTION      0.14    52.27     0  01:47      0.0216        4.44       0.320
  WS02006235           JUNCTION      0.14    52.13     0  01:47      0.0223        4.43       0.180
  WS02006238           JUNCTION      0.15    51.99     0  01:47      0.0235        4.47       0.227
  WS02006239           JUNCTION      0.11    31.40     0  03:59      0.0174        1.33       1.199
  WS02006242           JUNCTION      0.08    32.65     0  01:41      0.0129        1.35       1.428
  WS02006240           JUNCTION      0.06    31.82     0  01:40     0.00992        1.34       1.272
  WS02006243           JUNCTION      0.17    34.51     0  01:42      0.0269        1.37       1.288
  WS02006245           JUNCTION      0.07    35.85     0  01:42      0.0113        1.36       0.959
  WS02006247           JUNCTION     16.47    37.15     0  01:42        1.31        2.18       0.520
  WS02006248           JUNCTION      0.12    72.11     0  02:16      0.0192        5.87       0.164
  WS02006249           JUNCTION      0.19    57.60     0  01:58      0.0286        4.98       0.260
  WS02006251           JUNCTION      5.77    57.41     0  01:58        0.44        4.96       0.246
  WS02006253           JUNCTION      0.11    51.78     0  01:57      0.0173        4.53       0.123
  WS02618401           JUNCTION      0.00     0.00     0  00:00           0           0       0.000 ltr
  WS8802               JUNCTION      0.00     0.00     0  00:00           0           0       0.000 ltr
  WSA1649              JUNCTION      0.00     0.00     0  00:00           0           0       0.000 ltr
  WSF200               JUNCTION      0.14   199.22     0  02:28      0.0216        14.9       0.048
  XR-Inflow            JUNCTION    428.33   428.33     0  02:25        33.7        33.7       0.077
  WS02004114           JUNCTION      0.57    64.16     0  01:53      0.0916        8.44       0.310
  outfall-2            OUTFALL       0.00     0.00     0  00:00           0           0       0.000 ltr
  outfall-5            OUTFALL       0.00    72.12     0  02:16           0        5.06       0.000
  outfall-14           OUTFALL       0.00     0.00     0  00:00           0           0       0.000 ltr
  outfall-16           OUTFALL       0.00     0.00     0  00:00           0           0       0.000 ltr
  12                   OUTFALL       0.00   242.35     0  02:09           0        21.9       0.000
  XR-storage           STORAGE       0.00    64.16     0  01:52           0        8.41      -0.617
  CC-storage           STORAGE      51.35    51.35     0  02:00        3.59        3.59      -5.524
  JK-storage           STORAGE      52.90    52.90     0  02:00        3.63        3.63      -5.752
  
  
  **********************
  Node Surcharge Summary
  **********************
  
  Surcharging occurs when water rises above the top of the highest conduit.
  ---------------------------------------------------------------------
                                               Max. Height   Min. Depth
                                   Hours       Above Crown    Below Rim
  Node                 Type      Surcharged         Meters       Meters
  ---------------------------------------------------------------------
  WS01000070           JUNCTION        4.00          0.000        0.000
  WS01000323           JUNCTION        4.00          0.000        0.000
  WS01000533           JUNCTION        4.00          0.000        2.147
  WS01005172           JUNCTION        4.00          0.000        0.000
  WS01005181           JUNCTION        4.00          0.000        0.000
  WS01009841           JUNCTION        4.00          0.000        0.000
  WS02000078           JUNCTION        4.00          0.000        0.000
  WS02000112           JUNCTION        4.00          0.000        0.000
  WS02000136           JUNCTION        4.00          0.000        0.000
  WS02001212           JUNCTION        0.01          0.048        3.216
  WS02001213           JUNCTION        0.07          0.714        2.648
  WS02003059           JUNCTION        0.45          2.821        0.896
  WS02003071           JUNCTION        0.01          0.001        3.556
  WS02003073           JUNCTION        0.01          0.963        3.112
  WS02004053           JUNCTION        4.00          0.000        0.000
  WS02004402           JUNCTION        1.82          0.340        1.400
  WS02004403           JUNCTION        1.79          0.322        1.708
  WS02004404           JUNCTION        1.98          0.372        2.408
  WS02004405           JUNCTION        1.96          0.363        2.437
  WS02004406           JUNCTION        1.80          0.313        2.137
  WS02004407           JUNCTION        1.51          0.212        2.131
  WS02004409           JUNCTION        1.35          0.152        2.208
  WS02004410           JUNCTION        0.90          0.059        2.481
  WS02004997           JUNCTION        3.12          5.795        0.205
  WS02005192           JUNCTION        1.96          1.942        0.877
  WS02005193           JUNCTION        1.99          2.617        0.000
  WS02005196           JUNCTION        1.97          1.769        0.937
  WS02006109           JUNCTION        2.27          0.682        1.156
  WS02006110           JUNCTION        1.99          0.621        1.224
  WS02006111           JUNCTION        1.45          0.587        1.290
  WS02006112           JUNCTION        1.85          0.514        1.169
  WS02006113           JUNCTION        1.81          0.610        1.323
  WS02006115           JUNCTION        1.74          0.344        1.955
  WS02006116           JUNCTION        1.82          0.361        1.989
  WS02006183           JUNCTION        4.00          0.000        0.000
  WS02006228           JUNCTION        2.30          0.788        1.443
  WS02006229           JUNCTION        2.29          0.770        1.684
  WS02006231           JUNCTION        2.33          0.791        0.752
  WS02006232           JUNCTION        2.31          0.718        0.771
  WS02006234           JUNCTION        2.30          0.631        0.626
  WS02006235           JUNCTION        2.31          0.649        0.645
  WS02006238           JUNCTION        2.31          0.650        0.784
  WS02006239           JUNCTION        2.31          0.615        0.714
  WS02006242           JUNCTION        2.30          0.521        0.328
  WS02006240           JUNCTION        2.30          0.534        0.869
  WS02006243           JUNCTION        2.24          0.402        0.378
  WS02006245           JUNCTION        2.16          0.332        0.523
  WS02006247           JUNCTION        2.16          0.311        0.449
  WS02006249           JUNCTION        2.07          0.388        0.000
  WS02006251           JUNCTION        2.02          1.050        0.460
  WS02006253           JUNCTION        1.92          1.568        0.886
  WS02618401           JUNCTION        4.00          0.000        0.000
  WS8802               JUNCTION        4.00          0.000        4.942
  WSA1649              JUNCTION        4.00          0.000        0.000
  XR-Inflow            JUNCTION        3.09          5.650        0.000
  WS02004114           JUNCTION        3.13          5.757        0.758
  
  
  *********************
  Node Flooding Summary
  *********************
  
  Flooding refers to all water that overflows a node, whether it ponds or not.
  --------------------------------------------------------------------------
                                                             Total   Maximum
                                 Maximum   Time of Max       Flood    Ponded
                        Hours       Rate    Occurrence      Volume     Depth
  Node                 Flooded       MLD   days hr:min    10^6 ltr    Meters
  --------------------------------------------------------------------------
  WS02005193              0.01      9.82      0  01:45       0.000     0.000
  WS02006249              0.01      3.33      0  01:45       0.000     0.000
  XR-Inflow               2.62    365.18      0  02:25      25.311     0.000
  XR-storage              2.68     64.13      0  01:30       3.863     0.000
  CC-storage              1.30     16.79      0  02:00       0.456     0.000
  JK-storage              1.56     18.34      0  02:00       0.658     0.000
  
  
  **********************
  Storage Volume Summary
  **********************
  
  --------------------------------------------------------------------------------------------------
                         Average     Avg  Evap Exfil       Maximum     Max    Time of Max    Maximum
                          Volume    Pcnt  Pcnt  Pcnt        Volume    Pcnt     Occurrence    Outflow
  Storage Unit           1000 m3    Full  Loss  Loss       1000 m3    Full    days hr:min        MLD
  --------------------------------------------------------------------------------------------------
  XR-storage               0.059      94     0     0         0.063     100       0  01:19      32.48
  CC-storage               0.108      68     0     0         0.159     100       0  01:43      34.56
  JK-storage               0.093      69     0     0         0.136     100       0  01:28      34.56
  
  
  ***********************
  Outfall Loading Summary
  ***********************
  
  ---------------------------------------------------------------------------------------------------------------------------------
                         Flow       Avg       Max       Total         Total         Total         Total         Total         Total
                         Freq      Flow      Flow      Volume           COD         NH3-N            TN            TP            SS
  Outfall Node           Pcnt       MLD       MLD    10^6 ltr            kg            kg            kg            kg            kg
  ---------------------------------------------------------------------------------------------------------------------------------
  outfall-2              0.00      0.00      0.00       0.000         0.000         0.000         0.000         0.000         0.000
  outfall-5             87.38     57.35     72.12       5.062       893.654         0.000         0.000         0.000         0.000
  outfall-14             0.00      0.00      0.00       0.000         0.000         0.000         0.000         0.000         0.000
  outfall-16             0.00      0.00      0.00       0.000         0.000         0.000         0.000         0.000         0.000
  12                    99.99    186.65    242.35      21.908      3761.098         0.000         0.000         0.000         0.000
  ---------------------------------------------------------------------------------------------------------------------------------
  System                37.47    243.99    313.16      26.971      4654.752         0.000         0.000         0.000         0.000
  
  
  ********************
  Link Flow Summary
  ********************
  
  -----------------------------------------------------------------------------
                                 Maximum  Time of Max   Maximum    Max/    Max/
                                  |Flow|   Occurrence   |Veloc|    Full    Full
  Link                 Type          MLD  days hr:min     m/sec    Flow   Depth
  -----------------------------------------------------------------------------
  WSL49                CONDUIT    259.75     0  02:22      3.10    3.23    0.93
  WSL1465              CONDUIT     47.61     0  03:18      1.99    0.43    1.00
  WSL1472              CONDUIT    207.17     0  02:13      2.31    2.36    0.94
  WSL1475              CONDUIT    293.64     0  02:01      3.60    3.13    0.62
  WSL1476              CONDUIT     47.28     0  02:51      1.54    0.23    0.77
  WSL1477              CONDUIT     40.43     0  02:05      3.27    1.60    0.51
  WSL1490              CONDUIT     45.04     0  02:25      1.60    0.73    0.94
  WSL1491              CONDUIT     47.87     0  02:01      1.86    0.28    1.00
  WSL1492              CONDUIT     45.22     0  03:26      1.71    0.70    1.00
  WSL1507              CONDUIT      0.24     0  01:50      0.11    0.00    0.41
  WSL1508              CONDUIT     18.10     0  02:04      0.94    0.51    0.48
  WSL1512              CONDUIT     18.17     0  02:07      0.67    0.13    0.44
  WSL1513              CONDUIT     18.27     0  02:09      0.67    1.07    0.63
  WSL1515              CONDUIT    218.77     0  02:28      3.52    2.14    0.61
  WSL1516              CONDUIT     34.13     0  02:03      5.58    0.12    0.47
  WSL1518              CONDUIT     32.21     0  02:04      1.12    0.63    0.63
  WSL1519              CONDUIT     32.22     0  02:04      1.14    0.80    0.62
  WSL1521              CONDUIT     32.30     0  02:05      1.19    0.93    0.60
  WSL1543              CONDUIT     32.21     0  02:04      1.11    1.00    0.64
  WSL1961              CONDUIT     39.15     0  00:01      3.75    0.08    0.49
  WSL1964              CONDUIT     48.46     0  02:07      1.79    0.26    0.69
  WSL2010              CONDUIT     97.40     0  02:16      1.44    1.25    1.00
  WSL2011              CONDUIT     97.61     0  02:16      1.44    0.63    1.00
  WSL2012              CONDUIT     97.82     0  02:16      1.44    1.49    1.00
  WSL2013              CONDUIT    106.84     0  02:03      1.57    2.65    1.00
  WSL2014              CONDUIT    133.50     0  03:00      1.97    2.13    1.00
  WSL2015              CONDUIT    133.59     0  03:00      1.97    1.79    1.00
  WSL2016              CONDUIT    147.94     0  02:46      2.18    1.70    1.00
  WSL2017              CONDUIT    148.02     0  02:46      2.22    1.80    0.99
  WSL2018              CONDUIT    166.36     0  02:15      2.84    0.99    0.87
  WSL2019              CONDUIT    169.91     0  02:44      2.85    1.00    0.94
  WSL2028              CONDUIT     97.21     0  02:16      1.43    1.04    1.00
  WSL2029              CONDUIT    151.40     0  02:45      2.44    1.91    0.91
  WSL2038              CONDUIT     16.90     0  01:57      0.70    0.84    1.00
  WSL2039              CONDUIT     17.11     0  01:57      0.97    0.88    1.00
  WSL2041              CONDUIT     17.02     0  01:57      0.74    0.84    1.00
  WSL2294              CONDUIT     83.11     0  03:24      1.91    2.79    1.00
  WSL2295              CONDUIT     83.19     0  03:24      1.92    3.74    1.00
  WSL2296              CONDUIT     95.89     0  02:16      2.34    0.54    1.00
  WSL2297              CONDUIT     96.05     0  02:16      1.45    1.84    1.00
  WSL2298              CONDUIT     95.68     0  02:16      2.66    4.40    1.00
  WSL2301              CONDUIT     96.13     0  02:16      1.43    0.89    1.00
  WSL2302              CONDUIT     96.33     0  02:16      1.42    1.18    1.00
  WSL2441              CONDUIT     83.04     0  03:24      1.91    2.13    1.00
  WSL2442              CONDUIT     61.81     0  01:49      1.86    1.58    1.00
  WSL2443              CONDUIT     62.52     0  01:50      1.88    0.97    1.00
  WSL2444              CONDUIT     62.39     0  01:50      1.88    0.99    1.00
  WSL2446              CONDUIT     52.27     0  01:47      1.69    0.90    1.00
  WSL2447              CONDUIT     52.13     0  01:47      1.65    2.68    1.00
  WSL2448              CONDUIT     51.98     0  01:47      1.56    1.46    1.00
  WSL2449              CONDUIT     31.41     0  03:57      1.15    1.10    1.00
  WSL2450              CONDUIT     31.31     0  03:59      1.22    0.65    1.00
  WSL2451              CONDUIT     31.76     0  01:40      1.22    2.07    1.00
  WSL2452              CONDUIT     32.57     0  01:41      1.26    0.62    1.00
  WSL2454              CONDUIT     34.33     0  01:42      1.40    0.80    1.00
  WSL2478              CONDUIT     35.78     0  01:42      1.35    1.26    1.00
  WSL2479              CONDUIT     31.48     0  01:42      1.23    0.60    1.00
  WSL2480              CONDUIT     57.60     0  01:58      1.73    2.66    1.00
  WSL2482              CONDUIT     57.41     0  01:58      1.73    1.49    1.00
  WSL2484              CONDUIT     51.78     0  01:57      1.56    0.73    1.00
  WSL2493              CONDUIT     61.94     0  01:49      1.43    1.04    1.00
  WSL2867              CONDUIT    199.09     0  02:28      4.65    0.41    0.48
  WSL2868              CONDUIT    181.08     0  02:59      2.48    0.34    0.73
  WSL348               CONDUIT     63.16     0  02:02      1.88    0.58    1.00
  WSL175               CONDUIT     63.59     0  01:53      2.63    2.14    1.00
  WSL1467              CONDUIT    209.25     0  02:15      2.21    1.11    0.99
  WSL1473              CONDUIT    219.28     0  02:19      2.55    0.90    0.94
  XRpipe               CONDUIT     64.16     0  01:52      8.80    0.16    1.00
  8                    CONDUIT     72.12     0  02:16      7.94    0.95    0.78
  19                   CONDUIT      0.00     0  00:00      0.00    0.00    0.00
  17                   CONDUIT      0.00     0  00:00      0.00    0.00    0.00
  4                    CONDUIT      0.00     0  00:00      0.00    0.00    0.00
  2                    CONDUIT    242.35     0  02:09      4.59    0.88    0.73
  XR-Pump-1            PUMP         8.12     0  00:01              1.00
  XR-Pump-3            PUMP         8.12     0  00:01              1.00
  XR-Pump-2            PUMP         8.12     0  00:01              1.00
  XR-Pump-4            PUMP         8.12     0  00:01              1.00
  CC-Pump-1            PUMP        17.28     0  01:50              1.00
  CC-Pump-2            PUMP        17.28     0  01:30              1.00
  JK-Pump-1            PUMP        17.28     0  01:50              1.00
  JK-Pump-2            PUMP        17.28     0  01:40              1.00
  
  
  ***************************
  Flow Classification Summary
  ***************************
  
  -------------------------------------------------------------------------------------
                      Adjusted    ---------- Fraction of Time in Flow Class ---------- 
                       /Actual         Up    Down  Sub   Sup   Up    Down  Norm  Inlet 
  Conduit               Length    Dry  Dry   Dry   Crit  Crit  Crit  Crit  Ltd   Ctrl  
  -------------------------------------------------------------------------------------
  WSL49                   1.00   0.00  0.00  0.00  0.99  0.01  0.00  0.00  0.00  0.00
  WSL1465                 1.00   0.00  0.00  0.00  1.00  0.00  0.00  0.00  0.05  0.00
  WSL1472                 1.00   0.00  0.00  0.00  1.00  0.00  0.00  0.00  0.00  0.00
  WSL1475                 1.00   0.00  0.00  0.00  0.15  0.85  0.00  0.00  0.00  0.00
  WSL1476                 1.00   0.00  0.00  0.00  1.00  0.00  0.00  0.00  0.82  0.00
  WSL1477                 1.00   0.00  0.00  0.00  0.00  1.00  0.00  0.00  0.25  0.00
  WSL1490                 1.00   0.00  0.00  0.00  1.00  0.00  0.00  0.00  0.00  0.00
  WSL1491                 1.00   0.00  0.00  0.00  1.00  0.00  0.00  0.00  0.06  0.00
  WSL1492                 1.00   0.00  0.00  0.00  1.00  0.00  0.00  0.00  0.01  0.00
  WSL1507                 1.00   0.00  0.00  0.00  1.00  0.00  0.00  0.00  0.31  0.00
  WSL1508                 1.00   0.00  0.00  0.00  1.00  0.00  0.00  0.00  0.00  0.00
  WSL1512                 1.00   0.00  0.00  0.00  1.00  0.00  0.00  0.00  0.41  0.00
  WSL1513                 1.00   0.00  0.00  0.00  1.00  0.00  0.00  0.00  0.00  0.00
  WSL1515                 1.00   0.00  0.00  0.00  0.16  0.84  0.00  0.00  0.02  0.00
  WSL1516                 1.00   0.00  0.00  0.00  0.00  1.00  0.00  0.00  0.78  0.00
  WSL1518                 1.00   0.00  0.00  0.00  1.00  0.00  0.00  0.00  0.29  0.00
  WSL1519                 1.00   0.00  0.00  0.00  1.00  0.00  0.00  0.00  0.28  0.00
  WSL1521                 1.00   0.00  0.00  0.00  1.00  0.00  0.00  0.00  0.02  0.00
  WSL1543                 1.00   0.00  0.00  0.00  1.00  0.00  0.00  0.00  0.02  0.00
  WSL1961                 1.00   0.00  0.00  0.00  0.84  0.16  0.00  0.00  0.99  0.00
  WSL1964                 1.00   0.00  0.00  0.00  1.00  0.00  0.00  0.00  0.10  0.00
  WSL2010                 1.00   0.00  0.00  0.00  1.00  0.00  0.00  0.00  0.00  0.00
  WSL2011                 1.00   0.00  0.00  0.00  1.00  0.00  0.00  0.00  0.18  0.00
  WSL2012                 1.00   0.00  0.00  0.00  1.00  0.00  0.00  0.00  0.00  0.00
  WSL2013                 1.00   0.00  0.00  0.00  1.00  0.00  0.00  0.00  0.00  0.00
  WSL2014                 1.00   0.00  0.00  0.00  1.00  0.00  0.00  0.00  0.00  0.00
  WSL2015                 1.00   0.00  0.00  0.00  1.00  0.00  0.00  0.00  0.02  0.00
  WSL2016                 1.00   0.00  0.00  0.00  1.00  0.00  0.00  0.00  0.03  0.00
  WSL2017                 1.00   0.00  0.00  0.00  1.00  0.00  0.00  0.00  0.04  0.00
  WSL2018                 1.00   0.00  0.00  0.00  0.71  0.29  0.00  0.00  0.05  0.00
  WSL2019                 1.00   0.00  0.00  0.00  0.92  0.08  0.00  0.00  0.11  0.00
  WSL2028                 1.00   0.00  0.00  0.00  1.00  0.00  0.00  0.00  0.06  0.00
  WSL2029                 1.00   0.00  0.00  0.00  0.99  0.01  0.00  0.00  0.00  0.00
  WSL2038                 1.00   0.00  0.00  0.00  1.00  0.00  0.00  0.00  0.01  0.00
  WSL2039                 1.00   0.00  0.00  0.00  0.99  0.01  0.00  0.00  0.01  0.00
  WSL2041                 1.00   0.00  0.00  0.00  1.00  0.00  0.00  0.00  0.14  0.00
  WSL2294                 1.00   0.00  0.00  0.00  1.00  0.00  0.00  0.00  0.00  0.00
  WSL2295                 1.00   0.00  0.00  0.00  1.00  0.00  0.00  0.00  0.00  0.00
  WSL2296                 1.00   0.00  0.00  0.00  0.92  0.08  0.00  0.00  0.36  0.00
  WSL2297                 1.00   0.00  0.00  0.00  1.00  0.00  0.00  0.00  0.00  0.00
  WSL2298                 1.00   0.00  0.00  0.00  0.83  0.17  0.00  0.00  0.00  0.00
  WSL2301                 1.00   0.00  0.00  0.00  1.00  0.00  0.00  0.00  0.09  0.00
  WSL2302                 1.00   0.00  0.00  0.00  1.00  0.00  0.00  0.00  0.00  0.00
  WSL2441                 1.00   0.00  0.00  0.00  1.00  0.00  0.00  0.00  0.00  0.00
  WSL2442                 1.00   0.00  0.00  0.00  1.00  0.00  0.00  0.00  0.08  0.00
  WSL2443                 1.00   0.00  0.00  0.00  1.00  0.00  0.00  0.00  0.24  0.00
  WSL2444                 1.00   0.00  0.00  0.00  0.91  0.09  0.00  0.00  0.15  0.00
  WSL2446                 1.00   0.00  0.00  0.00  0.94  0.06  0.00  0.00  0.13  0.00
  WSL2447                 1.00   0.00  0.00  0.00  1.00  0.00  0.00  0.00  0.00  0.00
  WSL2448                 1.00   0.00  0.00  0.00  1.00  0.00  0.00  0.00  0.01  0.00
  WSL2449                 1.00   0.00  0.00  0.00  1.00  0.00  0.00  0.00  0.04  0.00
  WSL2450                 1.00   0.00  0.00  0.00  1.00  0.00  0.00  0.00  0.25  0.00
  WSL2451                 1.00   0.00  0.00  0.00  1.00  0.00  0.00  0.00  0.00  0.00
  WSL2452                 1.00   0.00  0.00  0.00  1.00  0.00  0.00  0.00  0.30  0.00
  WSL2454                 1.00   0.00  0.00  0.00  1.00  0.00  0.00  0.00  0.03  0.00
  WSL2478                 1.00   0.00  0.00  0.00  1.00  0.00  0.00  0.00  0.00  0.00
  WSL2479                 1.00   0.00  0.00  0.00  1.00  0.00  0.00  0.00  0.28  0.00
  WSL2480                 1.00   0.00  0.00  0.00  1.00  0.00  0.00  0.00  0.00  0.00
  WSL2482                 1.00   0.00  0.00  0.00  1.00  0.00  0.00  0.00  0.26  0.00
  WSL2484                 1.00   0.00  0.00  0.00  1.00  0.00  0.00  0.00  0.28  0.00
  WSL2493                 1.00   0.00  0.00  0.00  1.00  0.00  0.00  0.00  0.05  0.00
  WSL2867                 1.00   0.00  0.00  0.00  0.00  1.00  0.00  0.00  0.16  0.00
  WSL2868                 1.00   0.00  0.00  0.00  0.94  0.06  0.00  0.00  0.38  0.00
  WSL348                  1.00   0.00  0.00  0.00  0.99  0.01  0.00  0.00  0.01  0.00
  WSL175                  1.00   0.00  0.00  0.00  0.97  0.03  0.00  0.00  0.01  0.00
  WSL1467                 1.00   0.00  0.00  0.00  1.00  0.00  0.00  0.00  0.07  0.00
  WSL1473                 1.00   0.00  0.00  0.00  1.00  0.00  0.00  0.00  0.04  0.00
  XRpipe                  1.00   0.00  0.00  0.00  0.97  0.03  0.00  0.00  0.04  0.00
  8                       1.00   0.13  0.00  0.00  0.00  0.87  0.00  0.00  0.07  0.00
  19                      1.00   1.00  0.00  0.00  0.00  0.00  0.00  0.00  0.00  0.00
  17                      1.00   1.00  0.00  0.00  0.00  0.00  0.00  0.00  0.00  0.00
  4                       1.00   1.00  0.00  0.00  0.00  0.00  0.00  0.00  0.00  0.00
  2                       1.00   0.00  0.00  0.00  0.00  1.00  0.00  0.00  0.28  0.00
  
  
  *************************
  Conduit Surcharge Summary
  *************************
  
  ----------------------------------------------------------------------------
                                                           Hours        Hours 
                         --------- Hours Full --------   Above Full   Capacity
  Conduit                Both Ends  Upstream  Dnstream   Normal Flow   Limited
  ----------------------------------------------------------------------------
  WSL49                       0.01      0.01      0.01      2.35         0.01
  WSL1465                     0.45      0.45      1.38      0.01         0.01
  WSL1472                     0.01      0.01      0.01      2.31         0.01
  WSL1475                     0.01      0.01      0.01      2.31         0.01
  WSL1476                     0.01      0.01      2.22      0.01         0.01
  WSL1477                     0.01      0.01      0.01      0.94         0.01
  WSL1490                     0.01      0.01      0.01      0.01         0.01
  WSL1491                     0.01      0.01      0.07      0.01         0.01
  WSL1492                     0.06      0.07      0.45      0.01         0.02
  WSL1513                     0.01      0.01      0.01      0.76         0.01
  WSL1515                     0.01      0.01      0.01      2.08         0.01
  WSL1543                     0.01      0.01      0.01      0.10         0.01
  WSL2010                     1.79      1.82      1.79      2.20         1.78
  WSL2011                     1.79      1.79      1.98      0.01         0.01
  WSL2012                     1.96      1.98      1.96      2.28         1.96
  WSL2013                     1.80      1.96      1.80      2.40         1.80
  WSL2014                     1.51      1.80      1.51      2.35         1.51
  WSL2015                     1.35      1.51      1.35      2.30         1.35
  WSL2016                     0.90      1.35      0.90      2.27         0.90
  WSL2017                     0.01      0.90      0.01      2.29         0.01
  WSL2019                     0.01      0.01      0.01      0.01         0.01
  WSL2028                     1.80      1.80      1.82      1.20         1.10
  WSL2029                     0.01      0.01      0.01      2.30         0.01
  WSL2038                     1.96      1.96      1.97      0.01         0.02
  WSL2039                     1.99      1.99      2.01      0.01         0.02
  WSL2041                     1.97      1.97      1.99      0.01         0.01
  WSL2294                     1.99      2.27      1.99      2.46         1.99
  WSL2295                     1.81      1.99      1.81      2.49         1.81
  WSL2296                     1.45      1.45      2.25      0.01         0.01
  WSL2297                     1.74      1.85      1.74      2.38         1.74
  WSL2298                     1.45      1.81      1.45      2.52         1.45
  WSL2301                     1.74      1.74      1.82      0.01         0.01
  WSL2302                     1.80      1.82      1.80      2.08         1.79
  WSL2441                     2.27      2.30      2.27      2.43         2.27
  WSL2442                     2.35      2.36      2.35      2.41         2.35
  WSL2443                     2.33      2.33      2.36      0.01         0.01
  WSL2444                     2.31      2.31      2.33      0.01         0.01
  WSL2446                     2.30      2.30      2.31      0.01         0.01
  WSL2447                     2.30      2.31      2.30      2.50         2.30
  WSL2448                     2.31      2.31      2.31      1.40         1.37
  WSL2449                     2.31      2.31      2.31      0.29         0.22
  WSL2450                     2.30      2.30      2.31      0.01         0.01
  WSL2451                     2.30      2.30      2.30      0.75         0.49
  WSL2452                     2.24      2.24      2.30      0.01         0.01
  WSL2454                     2.15      2.16      2.24      0.01         0.01
  WSL2478                     2.15      2.16      2.16      0.37         0.10
  WSL2479                     2.05      2.05      2.16      0.01         0.01
  WSL2480                     2.05      2.07      2.05      2.39         2.05
  WSL2482                     2.02      2.02      2.07      1.94         1.93
  WSL2484                     1.92      1.92      2.02      0.01         0.01
  WSL2493                     2.29      2.29      2.30      0.09         0.12
  WSL348                      3.09      3.09      3.12      0.01         0.01
  WSL175                      3.12      3.12      3.13      2.79         2.79
  WSL1467                     0.01      0.01      0.01      0.98         0.01
  WSL1473                     0.01      0.01      0.01      0.01         0.01
  XRpipe                      3.13      3.13      3.48      0.01         0.01
  
  
  ***************
  Pumping Summary
  ***************
  
  ---------------------------------------------------------------------------------------------------------
                                                  Min       Avg       Max     Total     Power    % Time Off
                        Percent   Number of      Flow      Flow      Flow    Volume     Usage    Pump Curve
  Pump                 Utilized   Start-Ups       MLD       MLD       MLD  10^6 ltr     Kw-hr    Low   High
  ---------------------------------------------------------------------------------------------------------
  XR-Pump-1               95.79           3      0.00      7.94      8.12     1.178      7.15    0.0    0.0
  XR-Pump-3               87.48           3      0.00      7.93      8.12     1.065      6.12    0.0    0.0
  XR-Pump-2               91.62           3      0.00      7.93      8.12     1.121      6.98    0.0    0.0
  XR-Pump-4               95.79           3      0.00      7.94      8.12     1.178      7.15    0.0    0.0
  CC-Pump-1               54.17           1      0.00     16.31     17.28     1.439      4.94    0.0    0.0
  CC-Pump-2               79.13           2      0.00     16.51     17.28     1.902      8.42    0.0    0.0
  JK-Pump-1               54.17           1      0.00     16.31     17.28     1.439      6.94    0.0    0.0
  JK-Pump-2               70.81           2      0.00     16.60     17.28     1.753      9.51    0.0    0.0
  
  
  ***************************
  Link Pollutant Load Summary
  ***************************
  
  ------------------------------------------------------------------------------------------
                                 COD         NH3-N            TN            TP            SS
  Link                            kg            kg            kg            kg            kg
  ------------------------------------------------------------------------------------------
  WSL49                     3711.468         0.000         0.000         0.000         0.000
  WSL1465                    812.880         0.000         0.000         0.000         0.000
  WSL1472                   3246.688         0.000         0.000         0.000         0.000
  WSL1475                   3731.398         0.000         0.000         0.000         0.000
  WSL1476                    468.189         0.000         0.000         0.000         0.000
  WSL1477                    464.468         0.000         0.000         0.000         0.000
  WSL1490                    799.536         0.000         0.000         0.000         0.000
  WSL1491                    801.008         0.000         0.000         0.000         0.000
  WSL1492                    809.339         0.000         0.000         0.000         0.000
  WSL1507                      3.317         0.000         0.000         0.000         0.000
  WSL1508                    279.418         0.000         0.000         0.000         0.000
  WSL1512                    278.358         0.000         0.000         0.000         0.000
  WSL1513                    280.547         0.000         0.000         0.000         0.000
  WSL1515                   2425.852         0.000         0.000         0.000         0.000
  WSL1516                    464.787         0.000         0.000         0.000         0.000
  WSL1518                    465.250         0.000         0.000         0.000         0.000
  WSL1519                    464.802         0.000         0.000         0.000         0.000
  WSL1521                    465.328         0.000         0.000         0.000         0.000
  WSL1543                    463.838         0.000         0.000         0.000         0.000
  WSL1961                    785.286         0.000         0.000         0.000         0.000
  WSL1964                    795.146         0.000         0.000         0.000         0.000
  WSL2010                   1399.906         0.000         0.000         0.000         0.000
  WSL2011                   1403.995         0.000         0.000         0.000         0.000
  WSL2012                   1408.873         0.000         0.000         0.000         0.000
  WSL2013                   1530.052         0.000         0.000         0.000         0.000
  WSL2014                   1973.850         0.000         0.000         0.000         0.000
  WSL2015                   1973.510         0.000         0.000         0.000         0.000
  WSL2016                   2199.009         0.000         0.000         0.000         0.000
  WSL2017                   2200.404         0.000         0.000         0.000         0.000
  WSL2018                   2420.449         0.000         0.000         0.000         0.000
  WSL2019                   2421.552         0.000         0.000         0.000         0.000
  WSL2028                   1395.536         0.000         0.000         0.000         0.000
  WSL2029                   2205.035         0.000         0.000         0.000         0.000
  WSL2038                    220.874         0.000         0.000         0.000         0.000
  WSL2039                    226.946         0.000         0.000         0.000         0.000
  WSL2041                    224.697         0.000         0.000         0.000         0.000
  WSL2294                   1378.184         0.000         0.000         0.000         0.000
  WSL2295                   1379.001         0.000         0.000         0.000         0.000
  WSL2296                   1387.543         0.000         0.000         0.000         0.000
  WSL2297                   1392.194         0.000         0.000         0.000         0.000
  WSL2298                   1382.733         0.000         0.000         0.000         0.000
  WSL2301                   1392.023         0.000         0.000         0.000         0.000
  WSL2302                   1396.878         0.000         0.000         0.000         0.000
  WSL2441                   1376.950         0.000         0.000         0.000         0.000
  WSL2442                    745.039         0.000         0.000         0.000         0.000
  WSL2443                    745.909         0.000         0.000         0.000         0.000
  WSL2444                    742.985         0.000         0.000         0.000         0.000
  WSL2446                    741.488         0.000         0.000         0.000         0.000
  WSL2447                    738.067         0.000         0.000         0.000         0.000
  WSL2448                    734.059         0.000         0.000         0.000         0.000
  WSL2449                    199.363         0.000         0.000         0.000         0.000
  WSL2450                    202.308         0.000         0.000         0.000         0.000
  WSL2451                    205.197         0.000         0.000         0.000         0.000
  WSL2452                    206.431         0.000         0.000         0.000         0.000
  WSL2454                    205.120         0.000         0.000         0.000         0.000
  WSL2478                    204.003         0.000         0.000         0.000         0.000
  WSL2479                    269.120         0.000         0.000         0.000         0.000
  WSL2480                    884.436         0.000         0.000         0.000         0.000
  WSL2482                    881.332         0.000         0.000         0.000         0.000
  WSL2484                    809.883         0.000         0.000         0.000         0.000
  WSL2493                    747.512         0.000         0.000         0.000         0.000
  WSL2867                   2425.360         0.000         0.000         0.000         0.000
  WSL2868                   2432.434         0.000         0.000         0.000         0.000
  WSL348                    1500.623         0.000         0.000         0.000         0.000
  WSL175                    1509.153         0.000         0.000         0.000         0.000
  WSL1467                   3242.860         0.000         0.000         0.000         0.000
  WSL1473                   3247.217         0.000         0.000         0.000         0.000
  XRpipe                    1522.890         0.000         0.000         0.000         0.000
  8                          893.654         0.000         0.000         0.000         0.000
  19                           0.000         0.000         0.000         0.000         0.000
  17                           0.000         0.000         0.000         0.000         0.000
  4                            0.000         0.000         0.000         0.000         0.000
  2                         3761.098         0.000         0.000         0.000         0.000
  XR-Pump-1                  198.810         0.000         0.000         0.000         0.000
  XR-Pump-3                  184.118         0.000         0.000         0.000         0.000
  XR-Pump-2                  189.396         0.000         0.000         0.000         0.000
  XR-Pump-4                  198.810         0.000         0.000         0.000         0.000
  CC-Pump-1                  261.701         0.000         0.000         0.000         0.000
  CC-Pump-2                  320.094         0.000         0.000         0.000         0.000
  JK-Pump-1                  260.097         0.000         0.000         0.000         0.000
  JK-Pump-2                  296.044         0.000         0.000         0.000         0.000
  

  Analysis begun on:  Mon Mar 18 14:38:01 2019
  Analysis ended on:  Mon Mar 18 14:38:03 2019
  Total elapsed time: 00:00:02