
  EPA STORM WATER MANAGEMENT MODEL - VERSION 5.1 (Build 5.2.0.dev1)
  --------------------------------------------------------------

  
  *********************************************************
  NOTE: The summary statistics displayed in this report are
  based on results found at every computational time step,  
  not just on results from each reporting time step.
  *********************************************************
  
  ****************
  Analysis Options
  ****************
  Flow Units ............... MLD
  Process Models:
    Rainfall/Runoff ........ YES
    RDII ................... NO
    Snowmelt ............... NO
    Groundwater ............ NO
    Flow Routing ........... YES
    Ponding Allowed ........ NO
    Water Quality .......... YES
  Infiltration Method ...... GREEN_AMPT
  Flow Routing Method ...... DYNWAVE
  Starting Date ............ 08/28/2015 08:00:00
  Ending Date .............. 08/28/2015 12:00:00
  Antecedent Dry Days ...... 4.0
  Report Time Step ......... 00:01:00
  Wet Time Step ............ 00:01:00
  Dry Time Step ............ 00:01:00
  Routing Time Step ........ 5.00 sec
  Variable Time Step ....... YES
  Maximum Trials ........... 8
  Number of Threads ........ 1
  Head Tolerance ........... 0.001500 m
  
  
  **************************        Volume         Depth
  Runoff Quantity Continuity     hectare-m            mm
  **************************     ---------       -------
  Total Precipitation ......        11.899        42.188
  Evaporation Loss .........         0.000         0.000
  Infiltration Loss ........         4.369        15.488
  Surface Runoff ...........         4.405        15.617
  Final Storage ............         3.132        11.104
  Continuity Error (%) .....        -0.051
  
  
  **************************           COD         NH3-N            TN            TP            SS
  Runoff Quality Continuity             kg            kg            kg            kg            kg
  **************************    ----------    ----------    ----------    ----------    ----------
  Initial Buildup ..........     13074.240         0.000         0.000         0.000         0.000
  Surface Buildup ..........       102.277         0.000         0.000         0.000         0.000
  Wet Deposition ...........         0.000         0.000         0.000         0.000         0.000
  Sweeping Removal .........         0.000         0.000         0.000         0.000         0.000
  Infiltration Loss ........       379.306         0.000         0.000         0.000         0.000
  BMP Removal ..............         0.000         0.000         0.000         0.000         0.000
  Surface Runoff ...........      9531.745         0.000         0.000         0.000         0.000
  Remaining Buildup ........      3268.724         0.000         0.000         0.000         0.000
  Continuity Error (%) .....        -0.025         0.000         0.000         0.000         0.000
  
  
  **************************        Volume        Volume
  Flow Routing Continuity        hectare-m      10^6 ltr
  **************************     ---------     ---------
  Dry Weather Inflow .......         0.000         0.000
  Wet Weather Inflow .......         4.396        43.957
  Groundwater Inflow .......         0.000         0.000
  RDII Inflow ..............         0.000         0.000
  External Inflow ..........         0.561         5.611
  External Outflow .........         2.286        22.859
  Flooding Loss ............         2.587        25.873
  Evaporation Loss .........         0.000         0.000
  Exfiltration Loss ........         0.000         0.000
  Initial Stored Volume ....         0.000         0.000
  Final Stored Volume ......         0.162         1.622
  Continuity Error (%) .....        -1.585
  
  
  **************************           COD         NH3-N            TN            TP            SS
  Quality Routing Continuity            kg            kg            kg            kg            kg
  **************************    ----------    ----------    ----------    ----------    ----------
  Dry Weather Inflow .......         0.000         0.000         0.000         0.000         0.000
  Wet Weather Inflow .......      9525.626         0.000         0.000         0.000         0.000
  Groundwater Inflow .......         0.000         0.000         0.000         0.000         0.000
  RDII Inflow ..............         0.000         0.000         0.000         0.000         0.000
  External Inflow ..........       936.994         0.000         0.000         0.000         0.000
  External Outflow .........      4022.884         0.000         0.000         0.000         0.000
  Flooding Loss ............      6153.839         0.000         0.000         0.000         0.000
  Exfiltration Loss ........         0.000         0.000         0.000         0.000         0.000
  Mass Reacted .............         0.000         0.000         0.000         0.000         0.000
  Initial Stored Mass ......         0.000         0.000         0.000         0.000         0.000
  Final Stored Mass ........        97.066         0.000         0.000         0.000         0.000
  Continuity Error (%) .....         1.805         0.000         0.000         0.000         0.000
  
  
  *************************
  Highest Continuity Errors
  *************************
  Node WS02003059 (1.03%)
  
  
  ***************************
  Time-Step Critical Elements
  ***************************
  Link 8 (83.51%)
  Link WSL2448 (5.77%)
  Link WSL1477 (3.27%)
  Link XRpipe (2.70%)
  
  
  ********************************
  Highest Flow Instability Indexes
  ********************************
  Link WSL1477 (68)
  Link WSL1516 (65)
  Link WSL1521 (52)
  Link WSL1476 (37)
  Link WSL1515 (14)
  
  
  *************************
  Routing Time Step Summary
  *************************
  Minimum Time Step           :     0.00 sec
  Average Time Step           :     0.88 sec
  Maximum Time Step           :     5.00 sec
  Percent in Steady State     :    -0.00
  Average Iterations per Step :     2.51
  Percent Not Converging      :     5.13
  
  
  ***************************
  Subcatchment Runoff Summary
  ***************************
  
  --------------------------------------------------------------------------------------------------------
                            Total      Total      Total      Total      Total       Total     Peak  Runoff
                           Precip      Runon       Evap      Infil     Runoff      Runoff   Runoff   Coeff
  Subcatchment                 mm         mm         mm         mm         mm    10^6 ltr      MLD
  --------------------------------------------------------------------------------------------------------
  1                         42.19      84.47       0.00      14.93      84.30        1.02    15.22   0.666
  2                         42.19       0.00       0.00      11.27      20.22        0.68    11.34   0.479
  3                         42.19       0.00       0.00      11.46      18.93        0.97    16.02   0.449
  4                         42.19       0.00       0.00      11.16      20.98        0.56     9.31   0.497
  5                         42.19      49.47       0.00      14.03      57.10        0.97    14.17   0.623
  6                         42.19       0.00       0.00      11.44      19.03        0.94    15.60   0.451
  7                         42.19       0.00       0.00      18.07      15.98       25.56   394.47   0.379
  8                         42.19       0.00       0.00      11.38      19.50        0.83    13.73   0.462
  9                         42.19      19.32       0.00      12.84      31.25        1.18    17.39   0.508
  17                        42.19       0.00       0.00      11.31      19.95        0.73    12.17   0.473
  18                        42.19       0.00       0.00      11.39      19.43        0.84    14.00   0.461
  28                        42.19      77.59       0.00      15.49      71.29        1.87    27.44   0.595
  29                        42.19      32.03       0.00      13.17      40.91        0.99    14.06   0.551
  30                        42.19      76.38       0.00      14.57      83.32        0.77    11.67   0.703
  31                        42.19       0.00       0.00      11.30      20.06        0.71    11.84   0.475
  33                        42.19       0.00       0.00      10.53      24.65        0.21     3.70   0.584
  34                        42.19      43.51       0.00      13.91      51.39        1.06    15.44   0.600
  35                        42.19       0.00       0.00      11.22      20.56        0.62    10.38   0.487
  36                        42.19      44.22       0.00      14.65      43.28        2.55    35.93   0.501
  39                        42.19       0.00       0.00      11.28      20.19        0.69    11.45   0.478
  40                        42.19      10.90       0.00      12.24      26.02        1.02    15.59   0.490
  41                        42.19       0.00       0.00      11.00      22.01        0.43     7.16   0.522
  42                        42.19       0.00       0.00      11.08      21.48        0.49     8.19   0.509
  43                        42.19       0.00       0.00       9.95      27.37        0.10     1.79   0.649
  44                        42.19     713.22       0.00      23.13     666.27        2.47    37.15   0.882
  45                        42.19       0.00       0.00      10.63      24.10        0.25     4.25   0.571
  46                        42.19      36.55       0.00      13.49      45.69        0.98    14.02   0.580
  47                        42.19       0.00       0.00      10.68      23.85        0.26     4.52   0.565
  48                        42.19      16.72       0.00      12.10      33.93        0.54     8.15   0.576
  55                        42.19      25.01       0.00      12.10      43.31        0.36     5.53   0.645
  56                        42.19      39.72       0.00      13.66      47.96        1.03    14.81   0.586
  57                        42.19       0.00       0.00      11.45      18.99        0.95    15.76   0.450
  59                        42.19       0.00       0.00      10.51      24.76        0.21     3.59   0.587
  60                        42.19      54.34       0.00      13.03      69.68        0.36     5.63   0.722
  61                        42.19       0.00       0.00      11.88      15.45        2.78    46.24   0.366
  62                        42.19       0.00       0.00      11.90      15.32        2.91    48.39   0.363
  64                        42.19       0.00       0.00      10.73      23.60        0.28     4.82   0.559
  
  
  ****************************
  Subcatchment Washoff Summary
  ****************************
  
  ------------------------------------------------------------------------------------------
                                 COD         NH3-N            TN            TP            SS
  Subcatchment                    kg            kg            kg            kg            kg
  ------------------------------------------------------------------------------------------
  1                          148.560         0.000         0.000         0.000         0.000
  2                            0.000         0.000         0.000         0.000         0.000
  3                            0.000         0.000         0.000         0.000         0.000
  4                          113.833         0.000         0.000         0.000         0.000
  5                          203.547         0.000         0.000         0.000         0.000
  6                          201.590         0.000         0.000         0.000         0.000
  7                         5885.765         0.000         0.000         0.000         0.000
  8                          175.283         0.000         0.000         0.000         0.000
  9                          259.009         0.000         0.000         0.000         0.000
  17                         153.476         0.000         0.000         0.000         0.000
  18                         179.072         0.000         0.000         0.000         0.000
  28                         396.755         0.000         0.000         0.000         0.000
  29                         202.702         0.000         0.000         0.000         0.000
  30                         160.075         0.000         0.000         0.000         0.000
  31                         148.836         0.000         0.000         0.000         0.000
  33                          39.317         0.000         0.000         0.000         0.000
  34                         219.718         0.000         0.000         0.000         0.000
  35                         128.518         0.000         0.000         0.000         0.000
  36                         579.427         0.000         0.000         0.000         0.000
  39                         143.401         0.000         0.000         0.000         0.000
  40                         221.569         0.000         0.000         0.000         0.000
  41                          84.632         0.000         0.000         0.000         0.000
  42                          98.532         0.000         0.000         0.000         0.000
  43                          16.639         0.000         0.000         0.000         0.000
  44                         569.533         0.000         0.000         0.000         0.000
  45                          46.267         0.000         0.000         0.000         0.000
  46                         198.675         0.000         0.000         0.000         0.000
  47                          49.716         0.000         0.000         0.000         0.000
  48                         105.570         0.000         0.000         0.000         0.000
  55                          66.587         0.000         0.000         0.000         0.000
  56                         207.697         0.000         0.000         0.000         0.000
  57                         203.822         0.000         0.000         0.000         0.000
  59                          38.005         0.000         0.000         0.000         0.000
  60                          67.766         0.000         0.000         0.000         0.000
  61                         638.346         0.000         0.000         0.000         0.000
  62                         669.116         0.000         0.000         0.000         0.000
  64                          53.577         0.000         0.000         0.000         0.000
  ------------------------------------------------------------------------------------------
  System                   12674.932         0.000         0.000         0.000         0.000
  
  
  ******************
  Node Depth Summary
  ******************
  
  ---------------------------------------------------------------------------------
                                 Average  Maximum  Maximum  Time of Max    Reported
                                   Depth    Depth      HGL   Occurrence   Max Depth
  Node                 Type       Meters   Meters   Meters  days hr:min      Meters
  ---------------------------------------------------------------------------------
  WS01000070           JUNCTION     0.00     0.00     0.00     0  00:00        0.00
  WS01000323           JUNCTION     0.00     0.00     0.00     0  00:00        0.00
  WS01000533           JUNCTION     0.00     0.00     6.86     0  00:00        0.00
  WS01005172           JUNCTION     0.00     0.00     0.00     0  00:00        0.00
  WS01005181           JUNCTION     0.00     0.00     0.00     0  00:00        0.00
  WS01009841           JUNCTION     0.00     0.00     0.00     0  00:00        0.00
  WS02000078           JUNCTION     0.00     0.00     0.00     0  00:00        0.00
  WS02000112           JUNCTION     0.00     0.00     0.00     0  00:00        0.00
  WS02000136           JUNCTION     0.00     0.00     0.00     0  00:00        0.00
  WS02001211           JUNCTION     0.66     0.89     5.73     0  02:39        0.89
  WS02001212           JUNCTION     0.67     0.97     5.77     0  02:41        0.96
  WS02001213           JUNCTION     0.77     1.87     6.57     0  02:38        1.14
  WS02003059           JUNCTION     0.79     2.33     6.98     0  02:37        1.03
  WS02003060           JUNCTION     0.88     1.18     5.73     0  02:49        1.14
  WS02003066           JUNCTION     0.41     0.59     5.89     0  02:37        0.58
  WS02003067           JUNCTION     0.70     0.98     6.30     0  02:35        0.95
  WS02003071           JUNCTION     0.92     2.96     7.36     0  02:48        1.19
  WS02003072           JUNCTION     0.79     1.11     5.48     0  02:48        1.08
  WS02003073           JUNCTION     0.86     3.15     7.39     0  02:48        1.20
  WS02003076           JUNCTION     0.78     1.08     5.31     0  02:34        1.05
  WS02003077           JUNCTION     0.17     0.42     5.43     0  02:54        0.38
  WS02003078           JUNCTION     0.10     0.15     7.05     0  02:27        0.14
  WS02003079           JUNCTION     0.32     0.47     7.38     0  02:27        0.47
  WS02003093           JUNCTION     0.16     0.26     7.60     0  02:28        0.26
  WS02003094           JUNCTION     0.27     0.38     7.60     0  02:28        0.38
  WS02003098           JUNCTION     0.22     0.36     7.53     0  02:29        0.36
  WS02003099           JUNCTION     0.35     0.50     7.54     0  02:28        0.50
  WS02003102           JUNCTION     0.33     0.48     7.51     0  02:28        0.48
  WS02003103           JUNCTION     0.35     0.51     7.48     0  02:28        0.51
  WS02003104           JUNCTION     0.35     0.49     7.45     0  02:27        0.49
  WS02003106           JUNCTION     0.34     0.49     7.42     0  02:27        0.49
  WS02004050           JUNCTION     0.56     0.73     4.95     0  02:45        0.72
  WS02004053           JUNCTION     0.00     0.00     0.00     0  00:00        0.00
  WS02004136           JUNCTION     0.17     0.21     6.94     0  00:01        0.18
  WS02004139           JUNCTION     0.55     0.79     5.75     0  02:40        0.79
  WS02004401           JUNCTION     0.94     1.30     7.30     0  03:00        1.30
  WS02004402           JUNCTION     0.94     1.30     7.26     0  03:00        1.29
  WS02004403           JUNCTION     0.93     1.29     7.22     0  02:49        1.27
  WS02004404           JUNCTION     0.99     1.34     7.19     0  02:37        1.33
  WS02004405           JUNCTION     0.99     1.33     7.17     0  02:37        1.32
  WS02004406           JUNCTION     0.95     1.29     7.12     0  02:37        1.27
  WS02004407           JUNCTION     0.88     1.21     7.01     0  02:37        1.18
  WS02004409           JUNCTION     0.84     1.14     6.91     0  02:37        1.13
  WS02004410           JUNCTION     0.79     1.04     6.76     0  02:37        1.03
  WS02004411           JUNCTION     0.73     0.95     6.63     0  03:00        0.94
  WS02004412           JUNCTION     0.64     0.83     6.47     0  02:59        0.82
  WS02004413           JUNCTION     0.66     0.89     6.36     0  02:59        0.87
  WS02004997           JUNCTION     6.24     6.70     8.31     0  01:48        6.69
  WS02005192           JUNCTION     0.62     2.44    10.31     0  01:49        0.93
  WS02005193           JUNCTION     0.65     3.02    10.84     0  01:49        0.96
  WS02005196           JUNCTION     0.63     2.17    10.02     0  01:49        0.94
  WS02006109           JUNCTION     1.00     1.45     8.07     0  02:49        1.43
  WS02006110           JUNCTION     0.90     1.31     7.91     0  02:49        1.31
  WS02006111           JUNCTION     0.63     1.02     7.60     0  02:49        1.01
  WS02006112           JUNCTION     0.96     1.34     7.46     0  02:49        1.34
  WS02006113           JUNCTION     0.79     1.19     7.78     0  02:49        1.18
  WS02006115           JUNCTION     0.92     1.30     7.40     0  03:00        1.29
  WS02006116           JUNCTION     0.94     1.31     7.35     0  03:00        1.31
  WS02006183           JUNCTION     0.00     0.00     0.00     0  00:00        0.00
  WS02006228           JUNCTION     1.08     1.55     8.20     0  02:49        1.54
  WS02006229           JUNCTION     1.06     1.53     8.22     0  02:49        1.51
  WS02006230           JUNCTION     1.10     1.54     8.29     0  02:40        1.54
  WS02006231           JUNCTION     1.05     1.47     8.37     0  02:40        1.47
  WS02006232           JUNCTION     1.01     1.41     8.44     0  02:40        1.41
  WS02006234           JUNCTION     0.96     1.33     8.49     0  02:40        1.33
  WS02006235           JUNCTION     1.00     1.35     8.52     0  02:40        1.35
  WS02006238           JUNCTION     1.00     1.35     8.53     0  02:40        1.35
  WS02006239           JUNCTION     0.99     1.32     8.53     0  02:40        1.32
  WS02006242           JUNCTION     0.94     1.21     8.51     0  02:40        1.21
  WS02006240           JUNCTION     0.93     1.23     8.52     0  02:40        1.23
  WS02006243           JUNCTION     0.84     1.09     8.51     0  02:40        1.09
  WS02006245           JUNCTION     0.79     1.02     8.51     0  02:49        1.01
  WS02006247           JUNCTION     0.79     1.00     8.51     0  02:49        0.99
  WS02006248           JUNCTION     0.71     0.90     8.49     0  02:41        0.90
  WS02006249           JUNCTION     0.74     1.09     8.69     0  01:49        0.96
  WS02006251           JUNCTION     0.75     2.04     9.71     0  01:49        1.03
  WS02006253           JUNCTION     0.67     2.41    10.21     0  01:49        0.97
  WS02618401           JUNCTION     0.00     0.00     0.00     0  00:00        0.00
  WS8802               JUNCTION     0.00     0.00     4.38     0  00:00        0.00
  WSA1649              JUNCTION     0.00     0.00     0.00     0  00:00        0.00
  WSF200               JUNCTION     0.42     0.64     5.74     0  02:37        0.59
  XR-Inflow            JUNCTION     6.11     6.55     8.36     0  01:32        6.55
  WS02004114           JUNCTION     6.20     6.66     8.26     0  01:49        6.65
  outfall-2            OUTFALL      0.00     0.00     7.00     0  00:00        0.00
  outfall-5            OUTFALL      0.17     0.30     7.97     0  02:41        0.30
  outfall-14           OUTFALL      0.00     0.00     7.66     0  00:00        0.00
  outfall-16           OUTFALL      0.00     0.00     8.39     0  00:00        0.00
  12                   OUTFALL      0.56     0.72     0.72     0  02:45        0.70
  XR-storage           STORAGE      7.24     7.72     8.22     0  01:21        7.72
  CC-storage           STORAGE      2.69     5.63     8.81     0  02:16        5.63
  JK-storage           STORAGE      2.29     4.80     7.80     0  02:15        4.80
  
  
  *******************
  Node Inflow Summary
  *******************
  
  -------------------------------------------------------------------------------------------------
                                  Maximum  Maximum                  Lateral       Total        Flow
                                  Lateral    Total  Time of Max      Inflow      Inflow     Balance
                                   Inflow   Inflow   Occurrence      Volume      Volume       Error
  Node                 Type           MLD      MLD  days hr:min    10^6 ltr    10^6 ltr     Percent
  -------------------------------------------------------------------------------------------------
  WS01000070           JUNCTION      0.00     0.00     0  00:00           0           0       0.000 ltr
  WS01000323           JUNCTION      0.00     0.00     0  00:00           0           0       0.000 ltr
  WS01000533           JUNCTION      0.00     0.00     0  00:00           0           0       0.000 ltr
  WS01005172           JUNCTION      0.00     0.00     0  00:00           0           0       0.000 ltr
  WS01005181           JUNCTION      0.00     0.00     0  00:00           0           0       0.000 ltr
  WS01009841           JUNCTION      0.00     0.00     0  00:00           0           0       0.000 ltr
  WS02000078           JUNCTION      0.00     0.00     0  00:00           0           0       0.000 ltr
  WS02000112           JUNCTION      0.00     0.00     0  00:00           0           0       0.000 ltr
  WS02000136           JUNCTION      0.00     0.00     0  00:00           0           0       0.000 ltr
  WS02001211           JUNCTION      0.25    49.31     0  02:38      0.0407        4.69       0.804
  WS02001212           JUNCTION      0.21    46.11     0  02:52      0.0346        4.68       0.605
  WS02001213           JUNCTION      0.30    46.76     0  02:52      0.0489         4.7       0.675
  WS02003059           JUNCTION      0.23    45.28     0  03:11      0.0378        4.71       1.045
  WS02003060           JUNCTION      0.16   216.03     0  02:37      0.0252        17.7       0.400
  WS02003066           JUNCTION      0.08   212.99     0  02:37      0.0122          13       0.118
  WS02003067           JUNCTION      0.26   169.53     0  02:59      0.0395          13       0.166
  WS02003071           JUNCTION      0.35   207.97     0  03:00      0.0538        17.7       0.395
  WS02003072           JUNCTION      0.24   202.15     0  03:00      0.0382        17.7       0.261
  WS02003073           JUNCTION      0.07   256.78     0  02:54     0.00978        19.6       0.221
  WS02003076           JUNCTION      0.72   267.19     0  02:49        0.12        19.7       0.140
  WS02003077           JUNCTION      0.04    35.12     0  02:27      0.0059        2.01       0.028
  WS02003078           JUNCTION      0.03    43.10     0  02:27     0.00419        2.01       0.042
  WS02003079           JUNCTION      0.04    31.75     0  02:28     0.00561        2.01       0.195
  WS02003093           JUNCTION      0.02     0.23     0  02:14     0.00306     0.00583      19.785
  WS02003094           JUNCTION     17.44    17.47     0  02:29        1.19        1.19       0.572
  WS02003098           JUNCTION      0.02    17.51     0  02:29     0.00293        1.19       0.403
  WS02003099           JUNCTION      0.07    17.79     0  02:31      0.0109        1.19       0.815
  WS02003102           JUNCTION     13.76    30.97     0  02:30        0.83        2.01       0.441
  WS02003103           JUNCTION      0.02    31.02     0  02:30     0.00239        2.01       0.289
  WS02003104           JUNCTION      0.02    31.22     0  02:29     0.00302           2       0.245
  WS02003106           JUNCTION      0.05    31.40     0  02:29     0.00727        2.01       0.292
  WS02004050           JUNCTION      0.72   273.39     0  02:44       0.119        19.8       0.560
  WS02004053           JUNCTION      0.00     0.00     0  00:00           0           0       0.000 ltr
  WS02004136           JUNCTION      0.44    32.92     0  01:40      0.0703        4.61       0.067
  WS02004139           JUNCTION      0.38    39.53     0  00:01      0.0619        4.67       0.533
  WS02004401           JUNCTION      0.05    95.91     0  02:40     0.00897         8.7       0.312
  WS02004402           JUNCTION      0.22    96.29     0  02:41      0.0335        8.71       0.284
  WS02004403           JUNCTION      0.23    96.49     0  02:41      0.0349        8.72       0.250
  WS02004404           JUNCTION      0.24    96.70     0  02:41      0.0365        8.73       0.186
  WS02004405           JUNCTION      9.38   104.88     0  02:41       0.569        9.28       0.257
  WS02004406           JUNCTION     27.56   131.00     0  03:01        1.89        11.2       0.334
  WS02004407           JUNCTION      0.11   131.08     0  03:01      0.0171        11.1       0.301
  WS02004409           JUNCTION     14.36   145.12     0  03:01           1        12.1       0.245
  WS02004410           JUNCTION      0.15   145.34     0  03:01      0.0226        12.1       0.242
  WS02004411           JUNCTION      0.25   146.05     0  03:00      0.0379        12.1       0.218
  WS02004412           JUNCTION     15.69   161.35     0  03:00       0.953          13       0.182
  WS02004413           JUNCTION      0.11   162.87     0  03:00      0.0172          13       0.173
  WS02004997           JUNCTION      0.42    63.57     0  02:00      0.0693         8.2       0.495
  WS02005192           JUNCTION     15.86    15.86     0  02:22       0.966       0.967       0.325
  WS02005193           JUNCTION      0.09    16.41     0  02:20      0.0146       0.999       0.798
  WS02005196           JUNCTION      0.12    16.10     0  02:20       0.019       0.986       0.749
  WS02006109           JUNCTION      0.08    82.70     0  03:17      0.0135        7.74       0.320
  WS02006110           JUNCTION      0.08    82.78     0  03:17      0.0132        7.72       0.299
  WS02006111           JUNCTION      0.24    95.41     0  02:40      0.0366        8.71       0.128
  WS02006112           JUNCTION      0.18    95.57     0  02:40      0.0273        8.73       0.310
  WS02006113           JUNCTION     16.18    95.19     0  02:40       0.991        8.69       0.213
  WS02006115           JUNCTION      0.08    95.65     0  02:40      0.0134        8.71       0.348
  WS02006116           JUNCTION      0.24    95.86     0  02:40       0.036        8.72       0.323
  WS02006183           JUNCTION      0.00     0.00     0  00:00           0           0       0.000 ltr
  WS02006228           JUNCTION     37.30    82.63     0  03:17        2.49        7.74       0.238
  WS02006229           JUNCTION      0.13    62.54     0  01:51        0.02        5.27       0.307
  WS02006230           JUNCTION      0.07    62.50     0  01:59      0.0116        5.27       0.368
  WS02006231           JUNCTION      0.13    62.43     0  01:59      0.0205        5.27       0.290
  WS02006232           JUNCTION     11.42    62.29     0  01:59       0.694        5.27       0.300
  WS02006234           JUNCTION      0.14    57.81     0  01:50      0.0216        4.59       0.311
  WS02006235           JUNCTION      0.14    57.65     0  01:50      0.0223        4.58       0.178
  WS02006238           JUNCTION      0.15    57.52     0  01:50      0.0235        4.57       0.226
  WS02006239           JUNCTION      0.11    34.49     0  03:59      0.0174        1.99       0.807
  WS02006242           JUNCTION      0.08    34.32     0  03:59      0.0129           2       0.966
  WS02006240           JUNCTION      0.06    34.39     0  03:59     0.00992        1.99       0.858
  WS02006243           JUNCTION      0.17    34.24     0  03:59      0.0269        2.01       0.895
  WS02006245           JUNCTION      0.07    35.23     0  01:47      0.0113           2       0.699
  WS02006247           JUNCTION     15.36    36.64     0  01:47        1.04        2.34       0.519
  WS02006248           JUNCTION      0.12    69.31     0  02:41      0.0192        4.46       0.248
  WS02006249           JUNCTION      0.19    54.59     0  02:40      0.0286        4.11       0.366
  WS02006251           JUNCTION      5.59    54.42     0  02:40       0.369        4.09       0.372
  WS02006253           JUNCTION      0.11    48.89     0  02:40      0.0173        3.74       0.216
  WS02618401           JUNCTION      0.00     0.00     0  00:00           0           0       0.000 ltr
  WS8802               JUNCTION      0.00     0.00     0  00:00           0           0       0.000 ltr
  WSA1649              JUNCTION      0.00     0.00     0  00:00           0           0       0.000 ltr
  WSF200               JUNCTION      0.14   196.08     0  02:37      0.0216          13       0.065
  XR-Inflow            JUNCTION    413.55   413.55     0  02:45        28.9        28.9       0.090
  WS02004114           JUNCTION      0.57    64.15     0  01:47      0.0916        8.25       0.318
  outfall-2            OUTFALL       0.00     0.00     0  00:00           0           0       0.000 ltr
  outfall-5            OUTFALL       0.00    69.30     0  02:41           0        3.16       0.000
  outfall-14           OUTFALL       0.00     0.00     0  00:00           0           0       0.000 ltr
  outfall-16           OUTFALL       0.00     0.00     0  00:00           0           0       0.000 ltr
  12                   OUTFALL       0.00   238.28     0  02:45           0        19.7       0.000
  XR-storage           STORAGE       0.00    64.16     0  01:47           0        8.23      -0.663
  CC-storage           STORAGE      47.86    47.86     0  02:24        3.06        3.06     -11.125
  JK-storage           STORAGE      49.39    49.39     0  02:24        3.08        3.08      -8.281
  
  
  **********************
  Node Surcharge Summary
  **********************
  
  Surcharging occurs when water rises above the top of the highest conduit.
  ---------------------------------------------------------------------
                                               Max. Height   Min. Depth
                                   Hours       Above Crown    Below Rim
  Node                 Type      Surcharged         Meters       Meters
  ---------------------------------------------------------------------
  WS01000070           JUNCTION        4.00          0.000        0.000
  WS01000323           JUNCTION        4.00          0.000        0.000
  WS01000533           JUNCTION        4.00          0.000        2.147
  WS01005172           JUNCTION        4.00          0.000        0.000
  WS01005181           JUNCTION        4.00          0.000        0.000
  WS01009841           JUNCTION        4.00          0.000        0.000
  WS02000078           JUNCTION        4.00          0.000        0.000
  WS02000112           JUNCTION        4.00          0.000        0.000
  WS02000136           JUNCTION        4.00          0.000        0.000
  WS02001213           JUNCTION        0.04          0.870        2.492
  WS02003059           JUNCTION        0.16          1.331        2.386
  WS02003071           JUNCTION        0.01          1.758        1.799
  WS02003073           JUNCTION        0.01          1.946        2.129
  WS02004053           JUNCTION        4.00          0.000        0.000
  WS02004402           JUNCTION        1.28          0.296        1.444
  WS02004403           JUNCTION        1.24          0.286        1.744
  WS02004404           JUNCTION        1.52          0.337        2.443
  WS02004405           JUNCTION        1.50          0.330        2.470
  WS02004406           JUNCTION        1.26          0.292        2.158
  WS02004407           JUNCTION        0.98          0.206        2.137
  WS02004409           JUNCTION        0.67          0.138        2.222
  WS02004410           JUNCTION        0.11          0.037        2.503
  WS02004997           JUNCTION        3.09          5.796        0.204
  WS02005192           JUNCTION        1.42          1.836        0.983
  WS02005193           JUNCTION        1.54          2.417        0.200
  WS02005196           JUNCTION        1.47          1.574        1.132
  WS02006109           JUNCTION        2.16          0.645        1.193
  WS02006110           JUNCTION        1.48          0.513        1.332
  WS02006111           JUNCTION        0.76          0.215        1.662
  WS02006112           JUNCTION        1.31          0.343        1.340
  WS02006113           JUNCTION        1.25          0.395        1.538
  WS02006115           JUNCTION        1.20          0.297        2.002
  WS02006116           JUNCTION        1.28          0.312        2.038
  WS02006183           JUNCTION        4.00          0.000        0.000
  WS02006228           JUNCTION        2.20          0.745        1.486
  WS02006229           JUNCTION        2.20          0.729        1.725
  WS02006231           JUNCTION        2.23          0.767        0.776
  WS02006232           JUNCTION        2.23          0.706        0.783
  WS02006234           JUNCTION        2.22          0.627        0.630
  WS02006235           JUNCTION        2.22          0.651        0.643
  WS02006238           JUNCTION        2.22          0.652        0.782
  WS02006239           JUNCTION        2.22          0.616        0.713
  WS02006242           JUNCTION        2.22          0.515        0.334
  WS02006240           JUNCTION        2.22          0.531        0.872
  WS02006243           JUNCTION        2.21          0.388        0.392
  WS02006245           JUNCTION        2.20          0.322        0.533
  WS02006247           JUNCTION        2.20          0.302        0.458
  WS02006249           JUNCTION        1.82          0.388        0.000
  WS02006251           JUNCTION        1.66          1.335        0.175
  WS02006253           JUNCTION        1.29          1.713        0.741
  WS02618401           JUNCTION        4.00          0.000        0.000
  WS8802               JUNCTION        4.00          0.000        4.942
  WSA1649              JUNCTION        4.00          0.000        0.000
  XR-Inflow            JUNCTION        3.07          5.650        0.000
  WS02004114           JUNCTION        3.10          5.758        0.757
  
  
  *********************
  Node Flooding Summary
  *********************
  
  Flooding refers to all water that overflows a node, whether it ponds or not.
  --------------------------------------------------------------------------
                                                             Total   Maximum
                                 Maximum   Time of Max       Flood    Ponded
                        Hours       Rate    Occurrence      Volume     Depth
  Node                 Flooded       MLD   days hr:min    10^6 ltr    Meters
  --------------------------------------------------------------------------
  WS02006249              0.01      1.28      0  01:49       0.000     0.000
  XR-Inflow               2.45    350.40      0  02:45      20.699     0.000
  XR-storage              2.64     55.47      0  01:30       3.678     0.000
  CC-storage              0.77     47.86      0  02:24       0.711     0.000
  JK-storage              0.81     49.39      0  02:24       0.786     0.000
  
  
  **********************
  Storage Volume Summary
  **********************
  
  --------------------------------------------------------------------------------------------------
                         Average     Avg  Evap Exfil       Maximum     Max    Time of Max    Maximum
                          Volume    Pcnt  Pcnt  Pcnt        Volume    Pcnt     Occurrence    Outflow
  Storage Unit           1000 m3    Full  Loss  Loss       1000 m3    Full    days hr:min        MLD
  --------------------------------------------------------------------------------------------------
  XR-storage               0.059      94     0     0         0.063     100       0  01:21      32.48
  CC-storage               0.076      48     0     0         0.159     100       0  02:16      34.56
  JK-storage               0.065      48     0     0         0.136     100       0  02:15      34.56
  
  
  ***********************
  Outfall Loading Summary
  ***********************
  
  ---------------------------------------------------------------------------------------------------------------------------------
                         Flow       Avg       Max       Total         Total         Total         Total         Total         Total
                         Freq      Flow      Flow      Volume           COD         NH3-N            TN            TP            SS
  Outfall Node           Pcnt       MLD       MLD    10^6 ltr            kg            kg            kg            kg            kg
  ---------------------------------------------------------------------------------------------------------------------------------
  outfall-2              0.00      0.00      0.00       0.000         0.000         0.000         0.000         0.000         0.000
  outfall-5             87.12     37.51     69.30       3.161       464.526         0.000         0.000         0.000         0.000
  outfall-14             0.00      0.00      0.00       0.000         0.000         0.000         0.000         0.000         0.000
  outfall-16             0.00      0.00      0.00       0.000         0.000         0.000         0.000         0.000         0.000
  12                    99.99    168.78    238.28      19.699      3558.624         0.000         0.000         0.000         0.000
  ---------------------------------------------------------------------------------------------------------------------------------
  System                37.42    206.29    307.47      22.859      4023.150         0.000         0.000         0.000         0.000
  
  
  ********************
  Link Flow Summary
  ********************
  
  -----------------------------------------------------------------------------
                                 Maximum  Time of Max   Maximum    Max/    Max/
                                  |Flow|   Occurrence   |Veloc|    Full    Full
  Link                 Type          MLD  days hr:min     m/sec    Flow   Depth
  -----------------------------------------------------------------------------
  WSL49                CONDUIT    266.47     0  02:49      3.14    3.31    0.92
  WSL1465              CONDUIT     51.59     0  03:27      1.99    0.47    1.00
  WSL1472              CONDUIT    201.94     0  03:00      2.31    2.30    0.94
  WSL1475              CONDUIT    272.68     0  02:44      3.40    2.91    0.62
  WSL1476              CONDUIT     51.87     0  02:35      1.67    0.25    0.76
  WSL1477              CONDUIT     43.08     0  02:27      3.46    1.70    0.51
  WSL1490              CONDUIT     45.90     0  02:52      1.60    0.74    0.93
  WSL1491              CONDUIT     46.47     0  02:52      1.86    0.27    0.98
  WSL1492              CONDUIT     45.06     0  03:11      1.71    0.69    1.00
  WSL1507              CONDUIT      0.21     0  02:14      0.11    0.00    0.40
  WSL1508              CONDUIT     17.49     0  02:29      0.93    0.49    0.47
  WSL1512              CONDUIT     17.73     0  02:31      0.67    0.12    0.43
  WSL1513              CONDUIT     17.92     0  02:30      0.66    1.05    0.61
  WSL1515              CONDUIT    212.91     0  02:37      3.49    2.08    0.60
  WSL1516              CONDUIT     35.09     0  02:27      5.81    0.12    0.46
  WSL1518              CONDUIT     31.01     0  02:30      1.11    0.61    0.62
  WSL1519              CONDUIT     31.36     0  02:29      1.15    0.78    0.61
  WSL1521              CONDUIT     31.71     0  02:28      1.22    0.91    0.59
  WSL1543              CONDUIT     31.20     0  02:29      1.11    0.97    0.63
  WSL1961              CONDUIT     39.15     0  00:01      3.75    0.08    0.49
  WSL1964              CONDUIT     49.06     0  02:38      1.79    0.27    0.68
  WSL2010              CONDUIT     96.29     0  02:41      1.42    1.23    1.00
  WSL2011              CONDUIT     96.50     0  02:41      1.42    0.62    1.00
  WSL2012              CONDUIT     96.71     0  02:41      1.43    1.47    1.00
  WSL2013              CONDUIT    104.88     0  02:41      1.55    2.60    1.00
  WSL2014              CONDUIT    130.99     0  03:01      1.93    2.09    1.00
  WSL2015              CONDUIT    131.05     0  03:01      1.93    1.76    1.00
  WSL2016              CONDUIT    145.22     0  03:01      2.14    1.67    1.00
  WSL2017              CONDUIT    145.85     0  03:00      2.19    1.77    0.98
  WSL2018              CONDUIT    162.77     0  03:00      2.82    0.97    0.85
  WSL2019              CONDUIT    169.31     0  02:59      2.86    1.00    0.92
  WSL2028              CONDUIT     96.10     0  02:41      1.42    1.03    1.00
  WSL2029              CONDUIT    149.27     0  03:00      2.42    1.89    0.88
  WSL2038              CONDUIT     15.99     0  02:20      0.82    0.80    1.00
  WSL2039              CONDUIT     16.52     0  02:20      0.95    0.85    1.00
  WSL2041              CONDUIT     16.33     0  02:20      0.82    0.80    1.00
  WSL2294              CONDUIT     82.70     0  03:17      1.90    2.78    1.00
  WSL2295              CONDUIT     82.78     0  03:17      1.91    3.72    1.00
  WSL2296              CONDUIT     95.41     0  02:40      2.24    0.54    1.00
  WSL2297              CONDUIT     95.57     0  02:40      1.46    1.83    1.00
  WSL2298              CONDUIT     95.20     0  02:40      2.66    4.38    1.00
  WSL2301              CONDUIT     95.65     0  02:40      1.47    0.88    1.00
  WSL2302              CONDUIT     95.86     0  02:40      1.43    1.18    1.00
  WSL2441              CONDUIT     82.63     0  03:17      1.90    2.12    1.00
  WSL2442              CONDUIT     62.41     0  01:51      1.88    1.60    1.00
  WSL2443              CONDUIT     62.42     0  01:59      1.88    0.97    1.00
  WSL2444              CONDUIT     62.29     0  02:00      1.87    0.99    1.00
  WSL2446              CONDUIT     57.82     0  01:50      1.81    0.99    1.00
  WSL2447              CONDUIT     57.67     0  01:50      1.75    2.97    1.00
  WSL2448              CONDUIT     57.51     0  01:50      1.73    1.62    1.00
  WSL2449              CONDUIT     34.49     0  03:59      1.04    1.20    1.00
  WSL2450              CONDUIT     34.39     0  03:59      1.04    0.71    1.00
  WSL2451              CONDUIT     34.33     0  03:59      1.03    2.24    1.00
  WSL2452              CONDUIT     34.25     0  03:59      1.11    0.65    1.00
  WSL2454              CONDUIT     34.10     0  03:59      1.32    0.80    1.00
  WSL2478              CONDUIT     35.16     0  01:47      1.32    1.24    1.00
  WSL2479              CONDUIT     33.66     0  01:47      1.27    0.64    1.00
  WSL2480              CONDUIT     54.60     0  02:40      1.64    2.53    1.00
  WSL2482              CONDUIT     54.43     0  02:40      1.64    1.42    1.00
  WSL2484              CONDUIT     48.90     0  02:40      1.47    0.69    1.00
  WSL2493              CONDUIT     62.51     0  01:58      1.44    1.05    1.00
  WSL2867              CONDUIT    195.96     0  02:37      4.62    0.40    0.47
  WSL2868              CONDUIT    179.88     0  02:59      2.49    0.34    0.73
  WSL348               CONDUIT     63.16     0  03:00      1.88    0.58    1.00
  WSL175               CONDUIT     63.58     0  01:47      2.51    2.14    1.00
  WSL1467              CONDUIT    207.68     0  03:00      2.19    1.10    0.96
  WSL1473              CONDUIT    215.64     0  02:44      2.50    0.88    0.93
  XRpipe               CONDUIT     64.16     0  01:47      8.80    0.16    1.00
  8                    CONDUIT     69.30     0  02:41      7.91    0.91    0.75
  19                   CONDUIT      0.00     0  00:00      0.00    0.00    0.00
  17                   CONDUIT      0.00     0  00:00      0.00    0.00    0.00
  4                    CONDUIT      0.00     0  00:00      0.00    0.00    0.00
  2                    CONDUIT    238.28     0  02:45      4.58    0.86    0.72
  XR-Pump-1            PUMP         8.12     0  00:01              1.00
  XR-Pump-3            PUMP         8.12     0  00:01              1.00
  XR-Pump-2            PUMP         8.12     0  00:01              1.00
  XR-Pump-4            PUMP         8.12     0  00:01              1.00
  CC-Pump-1            PUMP        17.28     0  01:50              1.00
  CC-Pump-2            PUMP        17.28     0  01:40              1.00
  JK-Pump-1            PUMP        17.28     0  01:50              1.00
  JK-Pump-2            PUMP        17.28     0  01:40              1.00
  
  
  ***************************
  Flow Classification Summary
  ***************************
  
  -------------------------------------------------------------------------------------
                      Adjusted    ---------- Fraction of Time in Flow Class ---------- 
                       /Actual         Up    Down  Sub   Sup   Up    Down  Norm  Inlet 
  Conduit               Length    Dry  Dry   Dry   Crit  Crit  Crit  Crit  Ltd   Ctrl  
  -------------------------------------------------------------------------------------
  WSL49                   1.00   0.00  0.00  0.00  0.99  0.01  0.00  0.00  0.00  0.00
  WSL1465                 1.00   0.00  0.00  0.00  1.00  0.00  0.00  0.00  0.05  0.00
  WSL1472                 1.00   0.00  0.00  0.00  1.00  0.00  0.00  0.00  0.00  0.00
  WSL1475                 1.00   0.00  0.00  0.00  0.16  0.84  0.00  0.00  0.00  0.00
  WSL1476                 1.00   0.00  0.00  0.00  1.00  0.00  0.00  0.00  0.86  0.00
  WSL1477                 1.00   0.00  0.00  0.00  0.00  1.00  0.00  0.00  0.24  0.00
  WSL1490                 1.00   0.00  0.00  0.00  1.00  0.00  0.00  0.00  0.00  0.00
  WSL1491                 1.00   0.00  0.00  0.00  1.00  0.00  0.00  0.00  0.08  0.00
  WSL1492                 1.00   0.00  0.00  0.00  1.00  0.00  0.00  0.00  0.01  0.00
  WSL1507                 1.00   0.00  0.00  0.00  1.00  0.00  0.00  0.00  0.34  0.00
  WSL1508                 1.00   0.00  0.00  0.00  1.00  0.00  0.00  0.00  0.00  0.00
  WSL1512                 1.00   0.00  0.00  0.00  1.00  0.00  0.00  0.00  0.52  0.00
  WSL1513                 1.00   0.00  0.00  0.00  1.00  0.00  0.00  0.00  0.00  0.00
  WSL1515                 1.00   0.00  0.00  0.00  0.15  0.85  0.00  0.00  0.02  0.00
  WSL1516                 1.00   0.00  0.00  0.00  0.00  1.00  0.00  0.00  0.85  0.00
  WSL1518                 1.00   0.00  0.00  0.00  1.00  0.00  0.00  0.00  0.31  0.00
  WSL1519                 1.00   0.00  0.00  0.00  1.00  0.00  0.00  0.00  0.29  0.00
  WSL1521                 1.00   0.00  0.00  0.00  1.00  0.00  0.00  0.00  0.02  0.00
  WSL1543                 1.00   0.00  0.00  0.00  1.00  0.00  0.00  0.00  0.02  0.00
  WSL1961                 1.00   0.00  0.00  0.00  0.68  0.32  0.00  0.00  0.99  0.00
  WSL1964                 1.00   0.00  0.00  0.00  1.00  0.00  0.00  0.00  0.10  0.00
  WSL2010                 1.00   0.00  0.00  0.00  1.00  0.00  0.00  0.00  0.00  0.00
  WSL2011                 1.00   0.00  0.00  0.00  1.00  0.00  0.00  0.00  0.18  0.00
  WSL2012                 1.00   0.00  0.00  0.00  1.00  0.00  0.00  0.00  0.00  0.00
  WSL2013                 1.00   0.00  0.00  0.00  1.00  0.00  0.00  0.00  0.00  0.00
  WSL2014                 1.00   0.00  0.00  0.00  1.00  0.00  0.00  0.00  0.00  0.00
  WSL2015                 1.00   0.00  0.00  0.00  1.00  0.00  0.00  0.00  0.02  0.00
  WSL2016                 1.00   0.00  0.00  0.00  1.00  0.00  0.00  0.00  0.03  0.00
  WSL2017                 1.00   0.00  0.00  0.00  1.00  0.00  0.00  0.00  0.04  0.00
  WSL2018                 1.00   0.00  0.00  0.00  0.50  0.50  0.00  0.00  0.06  0.00
  WSL2019                 1.00   0.00  0.00  0.00  0.85  0.15  0.00  0.00  0.11  0.00
  WSL2028                 1.00   0.00  0.00  0.00  1.00  0.00  0.00  0.00  0.06  0.00
  WSL2029                 1.00   0.00  0.00  0.00  0.99  0.01  0.00  0.00  0.00  0.00
  WSL2038                 1.00   0.00  0.00  0.00  1.00  0.00  0.00  0.00  0.01  0.00
  WSL2039                 1.00   0.00  0.00  0.00  0.99  0.01  0.00  0.00  0.01  0.00
  WSL2041                 1.00   0.00  0.00  0.00  1.00  0.00  0.00  0.00  0.14  0.00
  WSL2294                 1.00   0.00  0.00  0.00  1.00  0.00  0.00  0.00  0.00  0.00
  WSL2295                 1.00   0.00  0.00  0.00  1.00  0.00  0.00  0.00  0.00  0.00
  WSL2296                 1.00   0.00  0.00  0.00  0.91  0.09  0.00  0.00  0.39  0.00
  WSL2297                 1.00   0.00  0.00  0.00  1.00  0.00  0.00  0.00  0.00  0.00
  WSL2298                 1.00   0.00  0.00  0.00  0.62  0.38  0.00  0.00  0.00  0.00
  WSL2301                 1.00   0.00  0.00  0.00  1.00  0.00  0.00  0.00  0.09  0.00
  WSL2302                 1.00   0.00  0.00  0.00  1.00  0.00  0.00  0.00  0.00  0.00
  WSL2441                 1.00   0.00  0.00  0.00  1.00  0.00  0.00  0.00  0.00  0.00
  WSL2442                 1.00   0.00  0.00  0.00  1.00  0.00  0.00  0.00  0.09  0.00
  WSL2443                 1.00   0.00  0.00  0.00  1.00  0.00  0.00  0.00  0.26  0.00
  WSL2444                 1.00   0.00  0.00  0.00  0.90  0.10  0.00  0.00  0.16  0.00
  WSL2446                 1.00   0.00  0.00  0.00  0.93  0.07  0.00  0.00  0.13  0.00
  WSL2447                 1.00   0.00  0.00  0.00  1.00  0.00  0.00  0.00  0.00  0.00
  WSL2448                 1.00   0.00  0.00  0.00  1.00  0.00  0.00  0.00  0.01  0.00
  WSL2449                 1.00   0.00  0.00  0.00  1.00  0.00  0.00  0.00  0.04  0.00
  WSL2450                 1.00   0.00  0.00  0.00  1.00  0.00  0.00  0.00  0.27  0.00
  WSL2451                 1.00   0.00  0.00  0.00  1.00  0.00  0.00  0.00  0.00  0.00
  WSL2452                 1.00   0.00  0.00  0.00  1.00  0.00  0.00  0.00  0.34  0.00
  WSL2454                 1.00   0.00  0.00  0.00  1.00  0.00  0.00  0.00  0.03  0.00
  WSL2478                 1.00   0.00  0.00  0.00  1.00  0.00  0.00  0.00  0.00  0.00
  WSL2479                 1.00   0.00  0.00  0.00  1.00  0.00  0.00  0.00  0.32  0.00
  WSL2480                 1.00   0.00  0.00  0.00  1.00  0.00  0.00  0.00  0.00  0.00
  WSL2482                 1.00   0.00  0.00  0.00  1.00  0.00  0.00  0.00  0.29  0.00
  WSL2484                 1.00   0.00  0.00  0.00  1.00  0.00  0.00  0.00  0.32  0.00
  WSL2493                 1.00   0.00  0.00  0.00  1.00  0.00  0.00  0.00  0.05  0.00
  WSL2867                 1.00   0.00  0.00  0.00  0.00  1.00  0.00  0.00  0.16  0.00
  WSL2868                 1.00   0.00  0.00  0.00  0.94  0.06  0.00  0.00  0.42  0.00
  WSL348                  1.00   0.00  0.00  0.00  0.99  0.01  0.00  0.00  0.01  0.00
  WSL175                  1.00   0.00  0.00  0.00  0.96  0.04  0.00  0.00  0.01  0.00
  WSL1467                 1.00   0.00  0.00  0.00  1.00  0.00  0.00  0.00  0.08  0.00
  WSL1473                 1.00   0.00  0.00  0.00  1.00  0.00  0.00  0.00  0.04  0.00
  XRpipe                  1.00   0.00  0.00  0.00  0.97  0.03  0.00  0.00  0.04  0.00
  8                       1.00   0.13  0.00  0.00  0.00  0.87  0.00  0.00  0.11  0.00
  19                      1.00   1.00  0.00  0.00  0.00  0.00  0.00  0.00  0.00  0.00
  17                      1.00   1.00  0.00  0.00  0.00  0.00  0.00  0.00  0.00  0.00
  4                       1.00   1.00  0.00  0.00  0.00  0.00  0.00  0.00  0.00  0.00
  2                       1.00   0.00  0.00  0.00  0.00  1.00  0.00  0.00  0.27  0.00
  
  
  *************************
  Conduit Surcharge Summary
  *************************
  
  ----------------------------------------------------------------------------
                                                           Hours        Hours 
                         --------- Hours Full --------   Above Full   Capacity
  Conduit                Both Ends  Upstream  Dnstream   Normal Flow   Limited
  ----------------------------------------------------------------------------
  WSL49                       0.01      0.01      0.01      2.24         0.01
  WSL1465                     0.16      0.16      0.89      0.01         0.01
  WSL1472                     0.01      0.01      0.01      2.19         0.01
  WSL1475                     0.01      0.01      0.01      2.17         0.01
  WSL1476                     0.01      0.01      2.01      0.01         0.01
  WSL1477                     0.01      0.01      0.01      0.62         0.01
  WSL1491                     0.01      0.01      0.04      0.01         0.01
  WSL1492                     0.03      0.04      0.16      0.01         0.01
  WSL1513                     0.01      0.01      0.01      0.38         0.01
  WSL1515                     0.01      0.01      0.01      1.81         0.01
  WSL2010                     1.24      1.28      1.24      1.99         1.23
  WSL2011                     1.24      1.24      1.52      0.01         0.01
  WSL2012                     1.50      1.52      1.50      2.16         1.49
  WSL2013                     1.26      1.50      1.26      2.27         1.26
  WSL2014                     0.98      1.26      0.98      2.20         0.98
  WSL2015                     0.67      0.98      0.67      2.15         0.67
  WSL2016                     0.11      0.67      0.11      2.11         0.11
  WSL2017                     0.01      0.11      0.01      2.13         0.01
  WSL2028                     1.24      1.24      1.28      0.48         0.43
  WSL2029                     0.01      0.01      0.01      2.13         0.01
  WSL2038                     1.42      1.42      1.47      0.01         0.01
  WSL2039                     1.54      1.54      1.59      0.01         0.01
  WSL2041                     1.47      1.47      1.54      0.01         0.01
  WSL2294                     1.48      2.16      1.48      2.34         1.48
  WSL2295                     1.25      1.48      1.25      2.36         1.25
  WSL2296                     0.76      0.76      2.02      0.01         0.01
  WSL2297                     1.20      1.31      1.20      2.25         1.20
  WSL2298                     0.76      1.25      0.76      2.38         0.76
  WSL2301                     1.20      1.20      1.28      0.01         0.01
  WSL2302                     1.24      1.28      1.24      1.71         1.24
  WSL2441                     2.16      2.20      2.16      2.31         2.16
  WSL2442                     2.24      2.25      2.24      2.29         2.22
  WSL2443                     2.23      2.23      2.25      0.01         0.01
  WSL2444                     2.23      2.23      2.23      0.01         0.01
  WSL2446                     2.22      2.22      2.23      0.01         0.02
  WSL2447                     2.22      2.22      2.22      2.39         2.22
  WSL2448                     2.22      2.22      2.22      1.58         1.58
  WSL2449                     2.22      2.22      2.22      0.53         0.56
  WSL2450                     2.22      2.22      2.22      0.01         0.01
  WSL2451                     2.22      2.22      2.22      1.39         1.24
  WSL2452                     2.21      2.21      2.22      0.01         0.01
  WSL2454                     2.20      2.20      2.21      0.01         0.01
  WSL2478                     2.20      2.20      2.20      0.59         0.54
  WSL2479                     1.71      1.71      2.20      0.01         0.01
  WSL2480                     1.71      1.82      1.71      2.17         1.71
  WSL2482                     1.66      1.66      1.82      1.36         1.34
  WSL2484                     1.29      1.29      1.66      0.01         0.01
  WSL2493                     2.20      2.20      2.20      0.27         0.25
  WSL348                      3.07      3.07      3.09      0.01         0.01
  WSL175                      3.09      3.09      3.10      2.74         2.76
  WSL1467                     0.01      0.01      0.01      0.42         0.01
  WSL1473                     0.01      0.01      0.01      0.01         0.01
  XRpipe                      3.10      3.10      3.46      0.01         0.01
  
  
  ***************
  Pumping Summary
  ***************
  
  ---------------------------------------------------------------------------------------------------------
                                                  Min       Avg       Max     Total     Power    % Time Off
                        Percent   Number of      Flow      Flow      Flow    Volume     Usage    Pump Curve
  Pump                 Utilized   Start-Ups       MLD       MLD       MLD  10^6 ltr     Kw-hr    Low   High
  ---------------------------------------------------------------------------------------------------------
  XR-Pump-1               95.79           3      0.00      7.95      8.12     1.178      7.19    0.0    0.0
  XR-Pump-3               87.47           3      0.00      7.94      8.12     1.065      6.12    0.0    0.0
  XR-Pump-2               91.63           3      0.00      7.95      8.12     1.121      7.03    0.0    0.0
  XR-Pump-4               95.79           3      0.00      7.95      8.12     1.178      7.19    0.0    0.0
  CC-Pump-1               49.98           2      0.00     15.08     17.28     1.209      9.25    0.0    0.0
  CC-Pump-2               70.79           3      0.00     15.05     17.28     1.527     11.51    0.0    0.0
  JK-Pump-1               45.82           2      0.00     14.70     17.28     1.076      8.44    0.0    0.0
  JK-Pump-2               66.64           3      0.00     15.20     17.28     1.499     12.19    0.0    0.0
  
  
  ***************************
  Link Pollutant Load Summary
  ***************************
  
  ------------------------------------------------------------------------------------------
                                 COD         NH3-N            TN            TP            SS
  Link                            kg            kg            kg            kg            kg
  ------------------------------------------------------------------------------------------
  WSL49                     3518.369         0.000         0.000         0.000         0.000
  WSL1465                    834.466         0.000         0.000         0.000         0.000
  WSL1472                   3079.812         0.000         0.000         0.000         0.000
  WSL1475                   3537.117         0.000         0.000         0.000         0.000
  WSL1476                    440.523         0.000         0.000         0.000         0.000
  WSL1477                    437.636         0.000         0.000         0.000         0.000
  WSL1490                    824.281         0.000         0.000         0.000         0.000
  WSL1491                    826.107         0.000         0.000         0.000         0.000
  WSL1492                    833.163         0.000         0.000         0.000         0.000
  WSL1507                      2.772         0.000         0.000         0.000         0.000
  WSL1508                    262.249         0.000         0.000         0.000         0.000
  WSL1512                    261.417         0.000         0.000         0.000         0.000
  WSL1513                    263.333         0.000         0.000         0.000         0.000
  WSL1515                   2238.037         0.000         0.000         0.000         0.000
  WSL1516                    438.009         0.000         0.000         0.000         0.000
  WSL1518                    437.737         0.000         0.000         0.000         0.000
  WSL1519                    437.424         0.000         0.000         0.000         0.000
  WSL1521                    438.015         0.000         0.000         0.000         0.000
  WSL1543                    436.589         0.000         0.000         0.000         0.000
  WSL1961                    811.455         0.000         0.000         0.000         0.000
  WSL1964                    820.385         0.000         0.000         0.000         0.000
  WSL2010                   1295.158         0.000         0.000         0.000         0.000
  WSL2011                   1299.221         0.000         0.000         0.000         0.000
  WSL2012                   1304.042         0.000         0.000         0.000         0.000
  WSL2013                   1419.414         0.000         0.000         0.000         0.000
  WSL2014                   1816.957         0.000         0.000         0.000         0.000
  WSL2015                   1816.714         0.000         0.000         0.000         0.000
  WSL2016                   2024.078         0.000         0.000         0.000         0.000
  WSL2017                   2025.427         0.000         0.000         0.000         0.000
  WSL2018                   2232.160         0.000         0.000         0.000         0.000
  WSL2019                   2233.318         0.000         0.000         0.000         0.000
  WSL2028                   1290.978         0.000         0.000         0.000         0.000
  WSL2029                   2029.844         0.000         0.000         0.000         0.000
  WSL2038                    207.322         0.000         0.000         0.000         0.000
  WSL2039                    214.294         0.000         0.000         0.000         0.000
  WSL2041                    211.585         0.000         0.000         0.000         0.000
  WSL2294                   1274.400         0.000         0.000         0.000         0.000
  WSL2295                   1275.133         0.000         0.000         0.000         0.000
  WSL2296                   1283.536         0.000         0.000         0.000         0.000
  WSL2297                   1287.634         0.000         0.000         0.000         0.000
  WSL2298                   1278.664         0.000         0.000         0.000         0.000
  WSL2301                   1287.429         0.000         0.000         0.000         0.000
  WSL2302                   1292.018         0.000         0.000         0.000         0.000
  WSL2441                   1273.408         0.000         0.000         0.000         0.000
  WSL2442                    697.897         0.000         0.000         0.000         0.000
  WSL2443                    697.969         0.000         0.000         0.000         0.000
  WSL2444                    694.959         0.000         0.000         0.000         0.000
  WSL2446                    693.362         0.000         0.000         0.000         0.000
  WSL2447                    689.978         0.000         0.000         0.000         0.000
  WSL2448                    686.128         0.000         0.000         0.000         0.000
  WSL2449                    345.409         0.000         0.000         0.000         0.000
  WSL2450                    343.708         0.000         0.000         0.000         0.000
  WSL2451                    343.322         0.000         0.000         0.000         0.000
  WSL2452                    342.413         0.000         0.000         0.000         0.000
  WSL2454                    339.239         0.000         0.000         0.000         0.000
  WSL2478                    337.830         0.000         0.000         0.000         0.000
  WSL2479                    286.308         0.000         0.000         0.000         0.000
  WSL2480                    644.357         0.000         0.000         0.000         0.000
  WSL2482                    640.750         0.000         0.000         0.000         0.000
  WSL2484                    571.934         0.000         0.000         0.000         0.000
  WSL2493                    700.400         0.000         0.000         0.000         0.000
  WSL2867                   2237.697         0.000         0.000         0.000         0.000
  WSL2868                   2243.550         0.000         0.000         0.000         0.000
  WSL348                    1537.763         0.000         0.000         0.000         0.000
  WSL175                    1545.898         0.000         0.000         0.000         0.000
  WSL1467                   3076.527         0.000         0.000         0.000         0.000
  WSL1473                   3081.004         0.000         0.000         0.000         0.000
  XRpipe                    1559.212         0.000         0.000         0.000         0.000
  8                          464.526         0.000         0.000         0.000         0.000
  19                           0.000         0.000         0.000         0.000         0.000
  17                           0.000         0.000         0.000         0.000         0.000
  4                            0.000         0.000         0.000         0.000         0.000
  2                         3558.624         0.000         0.000         0.000         0.000
  XR-Pump-1                  205.542         0.000         0.000         0.000         0.000
  XR-Pump-3                  191.171         0.000         0.000         0.000         0.000
  XR-Pump-2                  196.129         0.000         0.000         0.000         0.000
  XR-Pump-4                  205.542         0.000         0.000         0.000         0.000
  CC-Pump-1                  145.410         0.000         0.000         0.000         0.000
  CC-Pump-2                  211.644         0.000         0.000         0.000         0.000
  JK-Pump-1                  137.511         0.000         0.000         0.000         0.000
  JK-Pump-2                  201.407         0.000         0.000         0.000         0.000
  

  Analysis begun on:  Mon Mar 18 14:38:22 2019
  Analysis ended on:  Mon Mar 18 14:38:24 2019
  Total elapsed time: 00:00:02