
  EPA STORM WATER MANAGEMENT MODEL - VERSION 5.1 (Build 5.2.0.dev1)
  --------------------------------------------------------------

  
  *********************************************************
  NOTE: The summary statistics displayed in this report are
  based on results found at every computational time step,  
  not just on results from each reporting time step.
  *********************************************************
  
  ****************
  Analysis Options
  ****************
  Flow Units ............... MLD
  Process Models:
    Rainfall/Runoff ........ YES
    RDII ................... NO
    Snowmelt ............... NO
    Groundwater ............ NO
    Flow Routing ........... YES
    Ponding Allowed ........ NO
    Water Quality .......... YES
  Infiltration Method ...... GREEN_AMPT
  Flow Routing Method ...... DYNWAVE
  Starting Date ............ 08/28/2015 08:00:00
  Ending Date .............. 08/28/2015 12:00:00
  Antecedent Dry Days ...... 4.0
  Report Time Step ......... 00:01:00
  Wet Time Step ............ 00:01:00
  Dry Time Step ............ 00:01:00
  Routing Time Step ........ 5.00 sec
  Variable Time Step ....... YES
  Maximum Trials ........... 8
  Number of Threads ........ 1
  Head Tolerance ........... 0.001500 m
  
  
  **************************        Volume         Depth
  Runoff Quantity Continuity     hectare-m            mm
  **************************     ---------       -------
  Total Precipitation ......         4.780        16.946
  Evaporation Loss .........         0.000         0.000
  Infiltration Loss ........         2.114         7.495
  Surface Runoff ...........         1.189         4.216
  Final Storage ............         1.479         5.244
  Continuity Error (%) .....        -0.055
  
  
  **************************           COD         NH3-N            TN            TP            SS
  Runoff Quality Continuity             kg            kg            kg            kg            kg
  **************************    ----------    ----------    ----------    ----------    ----------
  Initial Buildup ..........     13074.240         0.000         0.000         0.000         0.000
  Surface Buildup ..........       110.528         0.000         0.000         0.000         0.000
  Wet Deposition ...........         0.000         0.000         0.000         0.000         0.000
  Sweeping Removal .........         0.000         0.000         0.000         0.000         0.000
  Infiltration Loss ........       158.583         0.000         0.000         0.000         0.000
  BMP Removal ..............         0.000         0.000         0.000         0.000         0.000
  Surface Runoff ...........      1892.025         0.000         0.000         0.000         0.000
  Remaining Buildup ........     11131.881         0.000         0.000         0.000         0.000
  Continuity Error (%) .....         0.017         0.000         0.000         0.000         0.000
  
  
  **************************        Volume        Volume
  Flow Routing Continuity        hectare-m      10^6 ltr
  **************************     ---------     ---------
  Dry Weather Inflow .......         0.000         0.000
  Wet Weather Inflow .......         1.186        11.857
  Groundwater Inflow .......         0.000         0.000
  RDII Inflow ..............         0.000         0.000
  External Inflow ..........         0.561         5.611
  External Outflow .........         1.083        10.829
  Flooding Loss ............         0.622         6.219
  Evaporation Loss .........         0.000         0.000
  Exfiltration Loss ........         0.000         0.000
  Initial Stored Volume ....         0.000         0.000
  Final Stored Volume ......         0.091         0.906
  Continuity Error (%) .....        -2.782
  
  
  **************************           COD         NH3-N            TN            TP            SS
  Quality Routing Continuity            kg            kg            kg            kg            kg
  **************************    ----------    ----------    ----------    ----------    ----------
  Dry Weather Inflow .......         0.000         0.000         0.000         0.000         0.000
  Wet Weather Inflow .......      1887.939         0.000         0.000         0.000         0.000
  Groundwater Inflow .......         0.000         0.000         0.000         0.000         0.000
  RDII Inflow ..............         0.000         0.000         0.000         0.000         0.000
  External Inflow ..........       937.002         0.000         0.000         0.000         0.000
  External Outflow .........      1601.329         0.000         0.000         0.000         0.000
  Flooding Loss ............       962.208         0.000         0.000         0.000         0.000
  Exfiltration Loss ........         0.000         0.000         0.000         0.000         0.000
  Mass Reacted .............         0.000         0.000         0.000         0.000         0.000
  Initial Stored Mass ......         0.000         0.000         0.000         0.000         0.000
  Final Stored Mass ........       115.110         0.000         0.000         0.000         0.000
  Continuity Error (%) .....         5.179         0.000         0.000         0.000         0.000
  
  
  *************************
  Highest Continuity Errors
  *************************
  Node WS02003099 (1.19%)
  
  
  ***************************
  Time-Step Critical Elements
  ***************************
  Link WSL2448 (36.73%)
  Link 8 (27.79%)
  Link WSL1477 (17.72%)
  Link XRpipe (6.61%)
  Link WSL2867 (2.68%)
  
  
  ********************************
  Highest Flow Instability Indexes
  ********************************
  Link WSL1477 (71)
  Link WSL1516 (59)
  Link WSL1515 (20)
  Link WSL2867 (15)
  Link WSL1521 (14)
  
  
  *************************
  Routing Time Step Summary
  *************************
  Minimum Time Step           :     0.50 sec
  Average Time Step           :     2.07 sec
  Maximum Time Step           :     5.00 sec
  Percent in Steady State     :     0.00
  Average Iterations per Step :     2.73
  Percent Not Converging      :     8.34
  
  
  ***************************
  Subcatchment Runoff Summary
  ***************************
  
  --------------------------------------------------------------------------------------------------------
                            Total      Total      Total      Total      Total       Total     Peak  Runoff
                           Precip      Runon       Evap      Infil     Runoff      Runoff   Runoff   Coeff
  Subcatchment                 mm         mm         mm         mm         mm    10^6 ltr      MLD
  --------------------------------------------------------------------------------------------------------
  1                         16.95      18.64       0.00       9.15      16.17        0.20     3.57   0.454
  2                         16.95       0.00       0.00       7.42       5.50        0.19     3.88   0.325
  3                         16.95       0.00       0.00       7.46       5.22        0.27     5.53   0.308
  4                         16.95       0.00       0.00       7.40       5.67        0.15     3.17   0.335
  5                         16.95      13.58       0.00       8.93      13.01        0.22     4.17   0.426
  6                         16.95       0.00       0.00       7.46       5.24        0.26     5.39   0.309
  7                         16.95       0.00       0.00       7.29       4.54        7.26   130.96   0.268
  8                         16.95       0.00       0.00       7.44       5.35        0.23     4.72   0.315
  9                         16.95       5.27       0.00       8.15       7.62        0.29     5.64   0.343
  17                        16.95       0.00       0.00       7.43       5.44        0.20     4.17   0.321
  18                        16.95       0.00       0.00       7.45       5.33        0.23     4.82   0.315
  28                        16.95      17.19       0.00       9.25      13.55        0.36     6.46   0.397
  29                        16.95       7.28       0.00       8.20       8.82        0.21     3.94   0.364
  30                        16.95      20.83       0.00       9.41      18.95        0.18     3.36   0.502
  31                        16.95       0.00       0.00       7.43       5.47        0.19     4.06   0.323
  33                        16.95       0.00       0.00       7.25       6.58        0.06     1.22   0.388
  34                        16.95      11.79       0.00       8.81      11.67        0.24     4.57   0.406
  35                        16.95       0.00       0.00       7.41       5.58        0.17     3.54   0.329
  36                        16.95      10.88       0.00       8.84       9.39        0.55    10.38   0.337
  39                        16.95       0.00       0.00       7.42       5.50        0.19     3.92   0.324
  40                        16.95       2.93       0.00       7.85       6.59        0.26     5.17   0.332
  41                        16.95       0.00       0.00       7.36       5.91        0.11     2.42   0.349
  42                        16.95       0.00       0.00       7.38       5.79        0.13     2.78   0.342
  43                        16.95       0.00       0.00       7.09       7.41        0.03     0.58   0.437
  44                        16.95     156.24       0.00      14.29     132.13        0.49     9.40   0.763
  45                        16.95       0.00       0.00       7.27       6.43        0.07     1.41   0.380
  46                        16.95       9.16       0.00       8.49      10.14        0.22     4.11   0.388
  47                        16.95       0.00       0.00       7.28       6.37        0.07     1.50   0.376
  48                        16.95       4.46       0.00       7.91       8.24        0.13     2.59   0.385
  55                        16.95       6.68       0.00       8.04      10.33        0.09     1.69   0.437
  56                        16.95      10.08       0.00       8.58      10.58        0.23     4.26   0.392
  57                        16.95       0.00       0.00       7.46       5.24        0.26     5.44   0.309
  59                        16.95       0.00       0.00       7.24       6.61        0.06     1.19   0.390
  60                        16.95      14.51       0.00       8.66      16.22        0.08     1.64   0.516
  61                        16.95       0.00       0.00       7.54       4.46        0.80    16.25   0.263
  62                        16.95       0.00       0.00       7.55       4.43        0.84    17.01   0.261
  64                        16.95       0.00       0.00       7.30       6.30        0.08     1.61   0.372
  
  
  ****************************
  Subcatchment Washoff Summary
  ****************************
  
  ------------------------------------------------------------------------------------------
                                 COD         NH3-N            TN            TP            SS
  Subcatchment                    kg            kg            kg            kg            kg
  ------------------------------------------------------------------------------------------
  1                           30.570         0.000         0.000         0.000         0.000
  2                            0.000         0.000         0.000         0.000         0.000
  3                            0.000         0.000         0.000         0.000         0.000
  4                           25.559         0.000         0.000         0.000         0.000
  5                           68.863         0.000         0.000         0.000         0.000
  6                           41.436         0.000         0.000         0.000         0.000
  7                         1034.155         0.000         0.000         0.000         0.000
  8                           36.766         0.000         0.000         0.000         0.000
  9                           68.324         0.000         0.000         0.000         0.000
  17                          32.845         0.000         0.000         0.000         0.000
  18                          37.442         0.000         0.000         0.000         0.000
  28                         135.716         0.000         0.000         0.000         0.000
  29                          63.766         0.000         0.000         0.000         0.000
  30                          55.237         0.000         0.000         0.000         0.000
  31                          32.004         0.000         0.000         0.000         0.000
  33                          10.797         0.000         0.000         0.000         0.000
  34                          73.879         0.000         0.000         0.000         0.000
  35                          28.286         0.000         0.000         0.000         0.000
  36                         167.590         0.000         0.000         0.000         0.000
  39                          31.015         0.000         0.000         0.000         0.000
  40                          53.651         0.000         0.000         0.000         0.000
  41                          20.008         0.000         0.000         0.000         0.000
  42                          22.675         0.000         0.000         0.000         0.000
  43                           5.503         0.000         0.000         0.000         0.000
  44                         153.268         0.000         0.000         0.000         0.000
  45                          12.287         0.000         0.000         0.000         0.000
  46                          65.433         0.000         0.000         0.000         0.000
  47                          13.012         0.000         0.000         0.000         0.000
  48                          32.082         0.000         0.000         0.000         0.000
  55                          24.345         0.000         0.000         0.000         0.000
  56                          70.732         0.000         0.000         0.000         0.000
  57                          41.830         0.000         0.000         0.000         0.000
  59                          10.511         0.000         0.000         0.000         0.000
  60                          27.139         0.000         0.000         0.000         0.000
  61                         113.209         0.000         0.000         0.000         0.000
  62                         117.984         0.000         0.000         0.000         0.000
  64                          13.814         0.000         0.000         0.000         0.000
  ------------------------------------------------------------------------------------------
  System                    2771.732         0.000         0.000         0.000         0.000
  
  
  ******************
  Node Depth Summary
  ******************
  
  ---------------------------------------------------------------------------------
                                 Average  Maximum  Maximum  Time of Max    Reported
                                   Depth    Depth      HGL   Occurrence   Max Depth
  Node                 Type       Meters   Meters   Meters  days hr:min      Meters
  ---------------------------------------------------------------------------------
  WS01000070           JUNCTION     0.00     0.00     0.00     0  00:00        0.00
  WS01000323           JUNCTION     0.00     0.00     0.00     0  00:00        0.00
  WS01000533           JUNCTION     0.00     0.00     6.86     0  00:00        0.00
  WS01005172           JUNCTION     0.00     0.00     0.00     0  00:00        0.00
  WS01005181           JUNCTION     0.00     0.00     0.00     0  00:00        0.00
  WS01009841           JUNCTION     0.00     0.00     0.00     0  00:00        0.00
  WS02000078           JUNCTION     0.00     0.00     0.00     0  00:00        0.00
  WS02000112           JUNCTION     0.00     0.00     0.00     0  00:00        0.00
  WS02000136           JUNCTION     0.00     0.00     0.00     0  00:00        0.00
  WS02001211           JUNCTION     0.45     0.58     5.42     0  03:04        0.58
  WS02001212           JUNCTION     0.41     0.60     5.40     0  03:04        0.60
  WS02001213           JUNCTION     0.51     0.69     5.39     0  03:03        0.69
  WS02003059           JUNCTION     0.49     0.75     5.40     0  03:03        0.75
  WS02003060           JUNCTION     0.56     0.82     5.37     0  03:02        0.81
  WS02003066           JUNCTION     0.24     0.43     5.73     0  03:08        0.38
  WS02003067           JUNCTION     0.41     0.69     6.01     0  03:08        0.67
  WS02003071           JUNCTION     0.61     0.93     5.33     0  03:01        0.91
  WS02003072           JUNCTION     0.52     0.82     5.19     0  03:01        0.81
  WS02003073           JUNCTION     0.59     0.97     5.21     0  03:00        0.88
  WS02003076           JUNCTION     0.54     0.83     5.06     0  02:58        0.78
  WS02003077           JUNCTION     0.08     0.18     5.19     0  03:01        0.17
  WS02003078           JUNCTION     0.05     0.08     6.98     0  02:51        0.08
  WS02003079           JUNCTION     0.16     0.26     7.17     0  02:51        0.26
  WS02003093           JUNCTION     0.04     0.08     7.42     0  02:50        0.08
  WS02003094           JUNCTION     0.14     0.20     7.42     0  02:51        0.20
  WS02003098           JUNCTION     0.09     0.14     7.31     0  02:51        0.14
  WS02003099           JUNCTION     0.17     0.27     7.31     0  02:52        0.27
  WS02003102           JUNCTION     0.16     0.26     7.29     0  02:53        0.26
  WS02003103           JUNCTION     0.18     0.28     7.25     0  02:52        0.28
  WS02003104           JUNCTION     0.17     0.28     7.24     0  02:52        0.28
  WS02003106           JUNCTION     0.17     0.27     7.20     0  02:51        0.27
  WS02004050           JUNCTION     0.37     0.53     4.75     0  03:03        0.52
  WS02004053           JUNCTION     0.00     0.00     0.00     0  00:00        0.00
  WS02004136           JUNCTION     0.17     0.21     6.94     0  00:01        0.18
  WS02004139           JUNCTION     0.37     0.47     5.43     0  03:05        0.47
  WS02004401           JUNCTION     0.45     0.76     6.76     0  03:02        0.75
  WS02004402           JUNCTION     0.46     0.77     6.73     0  03:02        0.77
  WS02004403           JUNCTION     0.45     0.76     6.69     0  03:02        0.76
  WS02004404           JUNCTION     0.53     0.84     6.69     0  03:02        0.84
  WS02004405           JUNCTION     0.53     0.83     6.67     0  03:02        0.83
  WS02004406           JUNCTION     0.50     0.80     6.63     0  03:02        0.79
  WS02004407           JUNCTION     0.47     0.75     6.55     0  03:03        0.75
  WS02004409           JUNCTION     0.46     0.72     6.49     0  03:03        0.72
  WS02004410           JUNCTION     0.44     0.68     6.40     0  03:02        0.68
  WS02004411           JUNCTION     0.41     0.63     6.31     0  03:02        0.63
  WS02004412           JUNCTION     0.35     0.56     6.20     0  03:03        0.56
  WS02004413           JUNCTION     0.37     0.59     6.06     0  03:08        0.59
  WS02004997           JUNCTION     5.62     6.69     8.30     0  02:51        6.68
  WS02005192           JUNCTION     0.27     1.29     9.16     0  02:53        0.63
  WS02005193           JUNCTION     0.29     1.15     8.97     0  02:52        0.68
  WS02005196           JUNCTION     0.28     1.40     9.25     0  02:53        0.68
  WS02006109           JUNCTION     0.51     0.82     7.44     0  03:00        0.81
  WS02006110           JUNCTION     0.46     0.72     7.32     0  03:00        0.72
  WS02006111           JUNCTION     0.26     0.43     7.01     0  03:01        0.43
  WS02006112           JUNCTION     0.47     0.77     6.89     0  03:01        0.77
  WS02006113           JUNCTION     0.38     0.60     7.19     0  03:00        0.60
  WS02006115           JUNCTION     0.43     0.73     6.83     0  03:01        0.73
  WS02006116           JUNCTION     0.46     0.76     6.80     0  03:02        0.76
  WS02006183           JUNCTION     0.00     0.00     0.00     0  00:00        0.00
  WS02006228           JUNCTION     0.53     0.89     7.54     0  03:00        0.88
  WS02006229           JUNCTION     0.51     0.89     7.58     0  03:00        0.89
  WS02006230           JUNCTION     0.52     0.98     7.73     0  03:00        0.98
  WS02006231           JUNCTION     0.47     1.12     8.02     0  03:06        0.97
  WS02006232           JUNCTION     0.46     1.30     8.33     0  03:06        0.96
  WS02006234           JUNCTION     0.45     1.17     8.33     0  03:06        0.96
  WS02006235           JUNCTION     0.50     1.19     8.36     0  03:06        1.04
  WS02006238           JUNCTION     0.51     1.23     8.41     0  03:06        1.05
  WS02006239           JUNCTION     0.50     1.30     8.51     0  03:06        1.04
  WS02006242           JUNCTION     0.49     1.26     8.56     0  03:06        0.99
  WS02006240           JUNCTION     0.46     1.23     8.52     0  03:06        0.98
  WS02006243           JUNCTION     0.42     1.14     8.56     0  03:06        0.96
  WS02006245           JUNCTION     0.40     1.08     8.57     0  03:06        0.83
  WS02006247           JUNCTION     0.41     0.99     8.50     0  03:06        0.82
  WS02006248           JUNCTION     0.36     0.75     8.34     0  03:00        0.75
  WS02006249           JUNCTION     0.38     0.96     8.56     0  02:51        0.78
  WS02006251           JUNCTION     0.37     1.00     8.67     0  02:53        0.79
  WS02006253           JUNCTION     0.30     0.83     8.63     0  02:53        0.70
  WS02618401           JUNCTION     0.00     0.00     0.00     0  00:00        0.00
  WS8802               JUNCTION     0.00     0.00     4.38     0  00:00        0.00
  WSA1649              JUNCTION     0.00     0.00     0.00     0  00:00        0.00
  WSF200               JUNCTION     0.24     0.43     5.53     0  03:10        0.42
  XR-Inflow            JUNCTION     5.48     6.55     8.36     0  02:19        6.55
  WS02004114           JUNCTION     5.58     6.66     8.26     0  02:51        6.65
  outfall-2            OUTFALL      0.00     0.00     7.00     0  00:00        0.00
  outfall-5            OUTFALL      0.04     0.15     7.82     0  03:00        0.15
  outfall-14           OUTFALL      0.00     0.00     7.66     0  00:00        0.00
  outfall-16           OUTFALL      0.00     0.00     8.39     0  00:00        0.00
  12                   OUTFALL      0.37     0.52     0.52     0  03:03        0.52
  XR-storage           STORAGE      6.56     7.72     8.22     0  01:25        7.72
  CC-storage           STORAGE      1.15     5.63     8.81     0  02:33        5.63
  JK-storage           STORAGE      1.45     4.80     7.80     0  02:36        4.80
  
  
  *******************
  Node Inflow Summary
  *******************
  
  -------------------------------------------------------------------------------------------------
                                  Maximum  Maximum                  Lateral       Total        Flow
                                  Lateral    Total  Time of Max      Inflow      Inflow     Balance
                                   Inflow   Inflow   Occurrence      Volume      Volume       Error
  Node                 Type           MLD      MLD  days hr:min    10^6 ltr    10^6 ltr     Percent
  -------------------------------------------------------------------------------------------------
  WS01000070           JUNCTION      0.00     0.00     0  00:00           0           0       0.000 ltr
  WS01000323           JUNCTION      0.00     0.00     0  00:00           0           0       0.000 ltr
  WS01000533           JUNCTION      0.00     0.00     0  00:00           0           0       0.000 ltr
  WS01005172           JUNCTION      0.00     0.00     0  00:00           0           0       0.000 ltr
  WS01005181           JUNCTION      0.00     0.00     0  00:00           0           0       0.000 ltr
  WS01009841           JUNCTION      0.00     0.00     0  00:00           0           0       0.000 ltr
  WS02000078           JUNCTION      0.00     0.00     0  00:00           0           0       0.000 ltr
  WS02000112           JUNCTION      0.00     0.00     0  00:00           0           0       0.000 ltr
  WS02000136           JUNCTION      0.00     0.00     0  00:00           0           0       0.000 ltr
  WS02001211           JUNCTION      0.25    37.45     0  03:06      0.0407        4.69       0.548
  WS02001212           JUNCTION      0.21    37.59     0  03:05      0.0346         4.7       0.311
  WS02001213           JUNCTION      0.30    39.03     0  03:31      0.0489        4.74       0.401
  WS02003059           JUNCTION      0.23    39.52     0  03:11      0.0378        4.75       0.504
  WS02003060           JUNCTION      0.16   144.46     0  03:10      0.0252        9.91       0.352
  WS02003066           JUNCTION      0.08   119.92     0  03:08      0.0122        5.14       0.169
  WS02003067           JUNCTION      0.26    95.78     0  03:05      0.0395        5.13       0.137
  WS02003071           JUNCTION      0.35   133.83     0  03:03      0.0538        9.93       0.368
  WS02003072           JUNCTION      0.24   144.64     0  03:02      0.0382        9.93       0.228
  WS02003073           JUNCTION      0.07   159.21     0  03:06     0.00978        10.5       0.211
  WS02003076           JUNCTION      0.72   176.99     0  03:07        0.12        10.6       0.118
  WS02003077           JUNCTION      0.04    11.86     0  02:51      0.0059       0.554       0.132
  WS02003078           JUNCTION      0.03    13.97     0  02:51     0.00419       0.548      -0.035
  WS02003079           JUNCTION      0.04    10.77     0  02:52     0.00561       0.545       0.289
  WS02003093           JUNCTION      0.02     0.07     0  02:38     0.00306     0.00343       0.655
  WS02003094           JUNCTION      5.70     5.71     0  02:50       0.297       0.301       0.950
  WS02003098           JUNCTION      0.02     5.73     0  02:51     0.00293         0.3       0.585
  WS02003099           JUNCTION      0.07     5.79     0  02:51      0.0109       0.309       1.207
  WS02003102           JUNCTION      4.75    10.43     0  02:49       0.231       0.536       0.575
  WS02003103           JUNCTION      0.02    10.43     0  02:52     0.00239       0.536       0.423
  WS02003104           JUNCTION      0.02    10.48     0  02:53     0.00302       0.536       0.359
  WS02003106           JUNCTION      0.05    10.60     0  02:53     0.00727       0.542       0.443
  WS02004050           JUNCTION      0.72   172.53     0  03:00       0.119        10.7       0.542
  WS02004053           JUNCTION      0.00     0.00     0  00:00           0           0       0.000 ltr
  WS02004136           JUNCTION      0.44    32.92     0  01:40      0.0703        4.61       0.066
  WS02004139           JUNCTION      0.38    39.53     0  00:01      0.0619        4.67       0.369
  WS02004401           JUNCTION      0.05    76.87     0  03:02     0.00897        3.92       0.165
  WS02004402           JUNCTION      0.22    76.97     0  03:02      0.0335        3.95       0.152
  WS02004403           JUNCTION      0.23    77.10     0  03:02      0.0349        3.97       0.128
  WS02004404           JUNCTION      0.24    77.26     0  03:03      0.0365        4.01       0.129
  WS02004405           JUNCTION      3.24    79.88     0  03:02       0.162        4.16       0.187
  WS02004406           JUNCTION      6.58    86.21     0  03:02       0.377        4.53       0.265
  WS02004407           JUNCTION      0.11    86.32     0  03:02      0.0171        4.54       0.236
  WS02004409           JUNCTION      4.37    90.44     0  03:03       0.255        4.78       0.200
  WS02004410           JUNCTION      0.15    90.50     0  03:03      0.0226        4.79       0.202
  WS02004411           JUNCTION      0.25    90.78     0  03:03      0.0379        4.82       0.176
  WS02004412           JUNCTION      5.47    95.14     0  03:02       0.273        5.09       0.136
  WS02004413           JUNCTION      0.11    95.25     0  03:03      0.0172         5.1       0.129
  WS02004997           JUNCTION      0.42    63.58     0  03:06      0.0693        7.26       0.575
  WS02005192           JUNCTION      5.54     5.54     0  02:47       0.279        0.28       0.128
  WS02005193           JUNCTION      0.09     7.63     0  02:52      0.0146       0.318       0.258
  WS02005196           JUNCTION      0.12     7.66     0  02:52       0.019       0.301       0.294
  WS02006109           JUNCTION      0.08    71.20     0  03:00      0.0135        3.54       0.234
  WS02006110           JUNCTION      0.08    71.30     0  03:00      0.0132        3.54       0.220
  WS02006111           JUNCTION      0.24    76.69     0  03:01      0.0366        3.86       0.078
  WS02006112           JUNCTION      0.18    76.87     0  03:01      0.0273        3.88       0.184
  WS02006113           JUNCTION      5.69    76.45     0  03:00       0.292        3.83       0.150
  WS02006115           JUNCTION      0.08    76.86     0  03:01      0.0134        3.89       0.179
  WS02006116           JUNCTION      0.24    76.93     0  03:01       0.036        3.92       0.174
  WS02006183           JUNCTION      0.00     0.00     0  00:00           0           0       0.000 ltr
  WS02006228           JUNCTION      9.56    71.11     0  03:00       0.516        3.53       0.171
  WS02006229           JUNCTION      0.13    61.60     0  03:00        0.02        3.02       0.159
  WS02006230           JUNCTION      0.07    61.56     0  03:00      0.0116           3       0.137
  WS02006231           JUNCTION      0.13    61.49     0  03:00      0.0205        2.99       0.070
  WS02006232           JUNCTION      3.96    61.38     0  03:00       0.199        2.97       0.073
  WS02006234           JUNCTION      0.14    57.81     0  03:00      0.0216        2.78       0.076
  WS02006235           JUNCTION      0.14    57.68     0  03:00      0.0223        2.76       0.045
  WS02006238           JUNCTION      0.15    57.55     0  03:00      0.0235        2.74       0.074
  WS02006239           JUNCTION      0.11    36.72     0  02:49      0.0174        1.72       0.183
  WS02006242           JUNCTION      0.08    39.11     0  02:50      0.0129         1.7       0.230
  WS02006240           JUNCTION      0.06    38.26     0  02:50     0.00992        1.71       0.144
  WS02006243           JUNCTION      0.17    40.78     0  02:50      0.0269        1.69       0.126
  WS02006245           JUNCTION      0.07    41.87     0  02:50      0.0113        1.67       0.116
  WS02006247           JUNCTION      3.71    42.68     0  02:51        0.22        1.66       0.122
  WS02006248           JUNCTION      0.12    43.60     0  02:53      0.0192        1.65       0.055
  WS02006249           JUNCTION      0.19    43.41     0  02:53      0.0286        1.63       0.108
  WS02006251           JUNCTION      1.74    43.26     0  02:53      0.0954        1.61       0.084
  WS02006253           JUNCTION      0.11    41.05     0  02:53      0.0173        1.52       0.027
  WS02618401           JUNCTION      0.00     0.00     0  00:00           0           0       0.000 ltr
  WS8802               JUNCTION      0.00     0.00     0  00:00           0           0       0.000 ltr
  WSA1649              JUNCTION      0.00     0.00     0  00:00           0           0       0.000 ltr
  WSF200               JUNCTION      0.14   113.03     0  03:08      0.0216        5.15      -0.023
  XR-Inflow            JUNCTION    149.19   149.19     0  03:00        10.6        10.6       0.253
  WS02004114           JUNCTION      0.57    64.12     0  02:53      0.0916        7.31       0.372
  outfall-2            OUTFALL       0.00     0.00     0  00:00           0           0       0.000 ltr
  outfall-5            OUTFALL       0.00    22.83     0  03:00           0       0.214       0.000
  outfall-14           OUTFALL       0.00     0.00     0  00:00           0           0       0.000 ltr
  outfall-16           OUTFALL       0.00     0.00     0  00:00           0           0       0.000 ltr
  12                   OUTFALL       0.00   149.48     0  03:03           0        10.6       0.000
  XR-storage           STORAGE       0.00    64.12     0  02:53           0        7.28      -0.811
  CC-storage           STORAGE      17.87    17.87     0  02:50        1.09        1.09     -17.469
  JK-storage           STORAGE      18.00    18.00     0  02:50        1.02        1.02     -13.060
  
  
  **********************
  Node Surcharge Summary
  **********************
  
  Surcharging occurs when water rises above the top of the highest conduit.
  ---------------------------------------------------------------------
                                               Max. Height   Min. Depth
                                   Hours       Above Crown    Below Rim
  Node                 Type      Surcharged         Meters       Meters
  ---------------------------------------------------------------------
  WS01000070           JUNCTION        4.00          0.000        0.000
  WS01000323           JUNCTION        4.00          0.000        0.000
  WS01000533           JUNCTION        4.00          0.000        2.147
  WS01005172           JUNCTION        4.00          0.000        0.000
  WS01005181           JUNCTION        4.00          0.000        0.000
  WS01009841           JUNCTION        4.00          0.000        0.000
  WS02000078           JUNCTION        4.00          0.000        0.000
  WS02000112           JUNCTION        4.00          0.000        0.000
  WS02000136           JUNCTION        4.00          0.000        0.000
  WS02004053           JUNCTION        4.00          0.000        0.000
  WS02004997           JUNCTION        3.06          5.794        0.206
  WS02005192           JUNCTION        0.14          0.691        2.128
  WS02005193           JUNCTION        0.20          0.552        2.065
  WS02005196           JUNCTION        0.16          0.796        1.910
  WS02006109           JUNCTION        0.15          0.016        1.822
  WS02006183           JUNCTION        4.00          0.000        0.000
  WS02006228           JUNCTION        0.35          0.086        2.145
  WS02006229           JUNCTION        0.33          0.089        2.365
  WS02006231           JUNCTION        0.58          0.423        1.120
  WS02006232           JUNCTION        0.50          0.602        0.887
  WS02006234           JUNCTION        0.44          0.473        0.784
  WS02006235           JUNCTION        0.50          0.489        0.805
  WS02006238           JUNCTION        0.51          0.526        0.908
  WS02006239           JUNCTION        0.52          0.604        0.725
  WS02006242           JUNCTION        0.49          0.560        0.289
  WS02006240           JUNCTION        0.47          0.535        0.868
  WS02006243           JUNCTION        0.42          0.444        0.336
  WS02006245           JUNCTION        0.36          0.379        0.476
  WS02006247           JUNCTION        0.37          0.287        0.473
  WS02006249           JUNCTION        0.27          0.257        0.131
  WS02006251           JUNCTION        0.23          0.301        1.209
  WS02006253           JUNCTION        0.01          0.129        2.325
  WS02618401           JUNCTION        4.00          0.000        0.000
  WS8802               JUNCTION        4.00          0.000        4.942
  WSA1649              JUNCTION        4.00          0.000        0.000
  XR-Inflow            JUNCTION        3.02          5.650        0.000
  WS02004114           JUNCTION        3.06          5.757        0.758
  
  
  *********************
  Node Flooding Summary
  *********************
  
  Flooding refers to all water that overflows a node, whether it ponds or not.
  --------------------------------------------------------------------------
                                                             Total   Maximum
                                 Maximum   Time of Max       Flood    Ponded
                        Hours       Rate    Occurrence      Volume     Depth
  Node                 Flooded       MLD   days hr:min    10^6 ltr    Meters
  --------------------------------------------------------------------------
  XR-Inflow               1.68     86.04      0  03:00       3.363     0.000
  XR-storage              2.58     31.63      0  02:53       2.741     0.000
  CC-storage              0.10      6.87      0  02:33       0.014     0.000
  JK-storage              0.24     16.28      0  02:40       0.103     0.000
  
  
  **********************
  Storage Volume Summary
  **********************
  
  --------------------------------------------------------------------------------------------------
                         Average     Avg  Evap Exfil       Maximum     Max    Time of Max    Maximum
                          Volume    Pcnt  Pcnt  Pcnt        Volume    Pcnt     Occurrence    Outflow
  Storage Unit           1000 m3    Full  Loss  Loss       1000 m3    Full    days hr:min        MLD
  --------------------------------------------------------------------------------------------------
  XR-storage               0.053      85     0     0         0.063     100       0  01:25      32.48
  CC-storage               0.032      20     0     0         0.159     100       0  02:33      34.56
  JK-storage               0.041      30     0     0         0.136     100       0  02:36      34.56
  
  
  ***********************
  Outfall Loading Summary
  ***********************
  
  ---------------------------------------------------------------------------------------------------------------------------------
                         Flow       Avg       Max       Total         Total         Total         Total         Total         Total
                         Freq      Flow      Flow      Volume           COD         NH3-N            TN            TP            SS
  Outfall Node           Pcnt       MLD       MLD    10^6 ltr            kg            kg            kg            kg            kg
  ---------------------------------------------------------------------------------------------------------------------------------
  outfall-2              0.00      0.00      0.00       0.000         0.000         0.000         0.000         0.000         0.000
  outfall-5             31.07     14.88     22.83       0.214        26.271         0.000         0.000         0.000         0.000
  outfall-14             0.00      0.00      0.00       0.000         0.000         0.000         0.000         0.000         0.000
  outfall-16             0.00      0.00      0.00       0.000         0.000         0.000         0.000         0.000         0.000
  12                    99.99     84.80    149.48      10.615      1575.124         0.000         0.000         0.000         0.000
  ---------------------------------------------------------------------------------------------------------------------------------
  System                26.21     99.68    167.94      10.829      1601.395         0.000         0.000         0.000         0.000
  
  
  ********************
  Link Flow Summary
  ********************
  
  -----------------------------------------------------------------------------
                                 Maximum  Time of Max   Maximum    Max/    Max/
                                  |Flow|   Occurrence   |Veloc|    Full    Full
  Link                 Type          MLD  days hr:min     m/sec    Flow   Depth
  -----------------------------------------------------------------------------
  WSL49                CONDUIT    176.27     0  03:07      2.67    2.19    0.73
  WSL1465              CONDUIT     43.29     0  03:15      1.99    0.39    0.77
  WSL1472              CONDUIT    144.42     0  03:02      2.11    1.65    0.69
  WSL1475              CONDUIT    171.82     0  03:00      3.05    1.83    0.47
  WSL1476              CONDUIT     18.08     0  03:01      0.69    0.09    0.61
  WSL1477              CONDUIT     13.95     0  02:51      2.38    0.55    0.29
  WSL1490              CONDUIT     37.38     0  03:05      1.60    0.60    0.58
  WSL1491              CONDUIT     38.75     0  03:31      1.86    0.23    0.64
  WSL1492              CONDUIT     39.29     0  03:11      1.71    0.61    0.71
  WSL1507              CONDUIT      0.10     0  03:03      0.11    0.00    0.18
  WSL1508              CONDUIT      5.71     0  02:51      0.85    0.16    0.21
  WSL1512              CONDUIT      5.72     0  02:51      0.58    0.04    0.20
  WSL1513              CONDUIT      5.80     0  02:56      0.48    0.34    0.33
  WSL1515              CONDUIT    119.85     0  03:08      2.93    1.17    0.44
  WSL1516              CONDUIT     11.83     0  02:51      4.22    0.04    0.21
  WSL1518              CONDUIT     10.42     0  02:52      0.81    0.20    0.34
  WSL1519              CONDUIT     10.56     0  02:53      0.81    0.26    0.34
  WSL1521              CONDUIT     10.74     0  02:52      0.88    0.31    0.33
  WSL1543              CONDUIT     10.47     0  02:53      0.78    0.33    0.35
  WSL1961              CONDUIT     39.15     0  00:01      3.75    0.08    0.32
  WSL1964              CONDUIT     37.21     0  03:06      1.79    0.20    0.43
  WSL2010              CONDUIT     76.91     0  03:02      1.39    0.98    0.77
  WSL2011              CONDUIT     77.07     0  03:03      1.33    0.50    0.80
  WSL2012              CONDUIT     77.35     0  03:03      1.28    1.18    0.84
  WSL2013              CONDUIT     79.99     0  03:03      1.35    1.99    0.81
  WSL2014              CONDUIT     86.22     0  03:02      1.53    1.38    0.77
  WSL2015              CONDUIT     86.41     0  03:03      1.62    1.16    0.73
  WSL2016              CONDUIT     90.38     0  03:03      1.78    1.04    0.70
  WSL2017              CONDUIT     90.58     0  03:03      1.92    1.10    0.66
  WSL2018              CONDUIT     95.15     0  03:03      2.39    0.57    0.57
  WSL2019              CONDUIT     95.57     0  03:05      2.29    0.56    0.64
  WSL2028              CONDUIT     76.79     0  03:02      1.39    0.82    0.76
  WSL2029              CONDUIT     90.90     0  03:04      2.17    1.15    0.59
  WSL2038              CONDUIT      7.55     0  02:52      0.66    0.38    1.00
  WSL2039              CONDUIT      6.39     0  02:53      0.97    0.33    1.00
  WSL2041              CONDUIT      6.53     0  02:52      0.73    0.32    1.00
  WSL2294              CONDUIT     71.22     0  03:00      1.67    2.39    0.95
  WSL2295              CONDUIT     71.31     0  03:00      1.87    3.21    0.82
  WSL2296              CONDUIT     76.73     0  03:01      2.21    0.43    0.75
  WSL2297              CONDUIT     76.79     0  03:01      1.45    1.47    0.75
  WSL2298              CONDUIT     76.49     0  03:01      2.62    3.52    0.64
  WSL2301              CONDUIT     76.74     0  03:01      1.46    0.71    0.74
  WSL2302              CONDUIT     76.81     0  03:02      1.42    0.94    0.76
  WSL2441              CONDUIT     71.12     0  03:00      1.64    1.82    1.00
  WSL2442              CONDUIT     61.49     0  03:00      1.85    1.57    1.00
  WSL2443              CONDUIT     61.49     0  03:00      1.85    0.96    1.00
  WSL2444              CONDUIT     61.38     0  03:00      1.85    0.97    1.00
  WSL2446              CONDUIT     57.81     0  03:00      1.77    0.99    1.00
  WSL2447              CONDUIT     57.69     0  03:00      1.74    2.97    1.00
  WSL2448              CONDUIT     57.55     0  03:00      1.73    1.62    1.00
  WSL2449              CONDUIT     35.72     0  02:49      1.13    1.25    1.00
  WSL2450              CONDUIT     36.62     0  02:49      1.21    0.76    1.00
  WSL2451              CONDUIT     38.20     0  02:50      1.23    2.49    1.00
  WSL2452              CONDUIT     39.03     0  02:50      1.28    0.75    1.00
  WSL2454              CONDUIT     40.62     0  02:50      1.43    0.95    1.00
  WSL2478              CONDUIT     41.81     0  02:50      1.41    1.48    1.00
  WSL2479              CONDUIT     39.14     0  02:51      1.32    0.74    1.00
  WSL2480              CONDUIT     43.49     0  02:53      1.36    2.01    1.00
  WSL2482              CONDUIT     43.24     0  02:53      1.34    1.13    1.00
  WSL2484              CONDUIT     41.53     0  02:53      1.44    0.59    1.00
  WSL2493              CONDUIT     61.61     0  03:00      1.42    1.04    1.00
  WSL2867              CONDUIT    112.91     0  03:08      3.99    0.23    0.34
  WSL2868              CONDUIT    102.24     0  03:09      2.15    0.19    0.51
  WSL348               CONDUIT     63.18     0  03:06      1.88    0.58    1.00
  WSL175               CONDUIT     63.58     0  03:06      2.36    2.14    1.00
  WSL1467              CONDUIT    133.54     0  03:03      1.92    0.71    0.72
  WSL1473              CONDUIT    149.69     0  03:06      2.21    0.61    0.72
  XRpipe               CONDUIT     64.12     0  02:53      8.80    0.16    1.00
  8                    CONDUIT     22.83     0  03:00      6.11    0.30    0.38
  19                   CONDUIT      0.00     0  00:00      0.00    0.00    0.00
  17                   CONDUIT      0.00     0  00:00      0.00    0.00    0.00
  4                    CONDUIT      0.00     0  00:00      0.00    0.00    0.00
  2                    CONDUIT    149.48     0  03:03      4.15    0.54    0.53
  XR-Pump-1            PUMP         8.12     0  00:01              1.00
  XR-Pump-3            PUMP         8.12     0  00:01              1.00
  XR-Pump-2            PUMP         8.12     0  00:01              1.00
  XR-Pump-4            PUMP         8.12     0  00:01              1.00
  CC-Pump-1            PUMP        17.28     0  02:50              1.00
  CC-Pump-2            PUMP        17.28     0  01:40              1.00
  JK-Pump-1            PUMP        17.28     0  03:00              1.00
  JK-Pump-2            PUMP        17.28     0  01:50              1.00
  
  
  ***************************
  Flow Classification Summary
  ***************************
  
  -------------------------------------------------------------------------------------
                      Adjusted    ---------- Fraction of Time in Flow Class ---------- 
                       /Actual         Up    Down  Sub   Sup   Up    Down  Norm  Inlet 
  Conduit               Length    Dry  Dry   Dry   Crit  Crit  Crit  Crit  Ltd   Ctrl  
  -------------------------------------------------------------------------------------
  WSL49                   1.00   0.00  0.00  0.00  0.99  0.01  0.00  0.00  0.00  0.00
  WSL1465                 1.00   0.00  0.00  0.00  1.00  0.00  0.00  0.00  0.08  0.00
  WSL1472                 1.00   0.00  0.00  0.00  1.00  0.00  0.00  0.00  0.00  0.00
  WSL1475                 1.00   0.00  0.00  0.00  0.16  0.84  0.00  0.00  0.01  0.00
  WSL1476                 1.00   0.00  0.00  0.00  1.00  0.00  0.00  0.00  0.99  0.00
  WSL1477                 1.00   0.00  0.00  0.00  0.00  1.00  0.00  0.00  0.41  0.00
  WSL1490                 1.00   0.00  0.00  0.00  1.00  0.00  0.00  0.00  0.00  0.00
  WSL1491                 1.00   0.00  0.00  0.00  1.00  0.00  0.00  0.00  0.08  0.00
  WSL1492                 1.00   0.00  0.00  0.00  1.00  0.00  0.00  0.00  0.00  0.00
  WSL1507                 1.00   0.00  0.00  0.00  1.00  0.00  0.00  0.00  0.62  0.00
  WSL1508                 1.00   0.00  0.00  0.00  1.00  0.00  0.00  0.00  0.00  0.00
  WSL1512                 1.00   0.00  0.00  0.00  1.00  0.00  0.00  0.00  1.00  0.00
  WSL1513                 1.00   0.00  0.00  0.00  1.00  0.00  0.00  0.00  0.00  0.00
  WSL1515                 1.00   0.00  0.00  0.00  0.11  0.89  0.00  0.00  0.05  0.00
  WSL1516                 1.00   0.00  0.00  0.00  0.00  1.00  0.00  0.00  1.00  0.00
  WSL1518                 1.00   0.00  0.00  0.00  1.00  0.00  0.00  0.00  0.54  0.00
  WSL1519                 1.00   0.00  0.00  0.00  1.00  0.00  0.00  0.00  0.36  0.00
  WSL1521                 1.00   0.00  0.00  0.00  1.00  0.00  0.00  0.00  0.02  0.00
  WSL1543                 1.00   0.00  0.00  0.00  1.00  0.00  0.00  0.00  0.02  0.00
  WSL1961                 1.00   0.00  0.00  0.00  0.02  0.98  0.00  0.00  0.99  0.00
  WSL1964                 1.00   0.00  0.00  0.00  1.00  0.00  0.00  0.00  0.10  0.00
  WSL2010                 1.00   0.00  0.00  0.00  1.00  0.00  0.00  0.00  0.01  0.00
  WSL2011                 1.00   0.00  0.00  0.00  1.00  0.00  0.00  0.00  0.18  0.00
  WSL2012                 1.00   0.00  0.00  0.00  1.00  0.00  0.00  0.00  0.00  0.00
  WSL2013                 1.00   0.00  0.00  0.00  1.00  0.00  0.00  0.00  0.00  0.00
  WSL2014                 1.00   0.00  0.00  0.00  1.00  0.00  0.00  0.00  0.00  0.00
  WSL2015                 1.00   0.00  0.00  0.00  1.00  0.00  0.00  0.00  0.02  0.00
  WSL2016                 1.00   0.00  0.00  0.00  1.00  0.00  0.00  0.00  0.05  0.00
  WSL2017                 1.00   0.00  0.00  0.00  1.00  0.00  0.00  0.00  0.04  0.00
  WSL2018                 1.00   0.00  0.00  0.00  0.01  0.99  0.00  0.00  0.12  0.00
  WSL2019                 1.00   0.00  0.00  0.00  0.44  0.56  0.00  0.00  0.11  0.00
  WSL2028                 1.00   0.00  0.00  0.00  1.00  0.00  0.00  0.00  0.06  0.00
  WSL2029                 1.00   0.00  0.00  0.00  0.67  0.33  0.00  0.00  0.00  0.00
  WSL2038                 1.00   0.00  0.00  0.00  1.00  0.00  0.00  0.00  0.01  0.00
  WSL2039                 1.00   0.00  0.00  0.00  0.95  0.05  0.00  0.00  0.02  0.00
  WSL2041                 1.00   0.00  0.00  0.00  1.00  0.00  0.00  0.00  0.21  0.00
  WSL2294                 1.00   0.00  0.00  0.00  1.00  0.00  0.00  0.00  0.00  0.00
  WSL2295                 1.00   0.00  0.00  0.00  1.00  0.00  0.00  0.00  0.00  0.00
  WSL2296                 1.00   0.00  0.00  0.00  0.52  0.48  0.00  0.00  0.68  0.00
  WSL2297                 1.00   0.00  0.00  0.00  1.00  0.00  0.00  0.00  0.00  0.00
  WSL2298                 1.00   0.00  0.00  0.00  0.05  0.95  0.00  0.00  0.00  0.00
  WSL2301                 1.00   0.00  0.00  0.00  1.00  0.00  0.00  0.00  0.09  0.00
  WSL2302                 1.00   0.00  0.00  0.00  1.00  0.00  0.00  0.00  0.03  0.00
  WSL2441                 1.00   0.00  0.00  0.00  1.00  0.00  0.00  0.00  0.01  0.00
  WSL2442                 1.00   0.00  0.00  0.00  1.00  0.00  0.00  0.00  0.12  0.00
  WSL2443                 1.00   0.00  0.00  0.00  1.00  0.00  0.00  0.00  0.44  0.00
  WSL2444                 1.00   0.00  0.00  0.00  0.47  0.53  0.00  0.00  0.30  0.00
  WSL2446                 1.00   0.00  0.00  0.00  0.55  0.45  0.00  0.00  0.24  0.00
  WSL2447                 1.00   0.00  0.00  0.00  1.00  0.00  0.00  0.00  0.00  0.00
  WSL2448                 1.00   0.00  0.00  0.00  1.00  0.00  0.00  0.00  0.02  0.00
  WSL2449                 1.00   0.00  0.00  0.00  1.00  0.00  0.00  0.00  0.04  0.00
  WSL2450                 1.00   0.00  0.00  0.00  1.00  0.00  0.00  0.00  0.33  0.00
  WSL2451                 1.00   0.00  0.00  0.00  1.00  0.00  0.00  0.00  0.00  0.00
  WSL2452                 1.00   0.00  0.00  0.00  1.00  0.00  0.00  0.00  0.56  0.00
  WSL2454                 1.00   0.00  0.00  0.00  1.00  0.00  0.00  0.00  0.05  0.00
  WSL2478                 1.00   0.00  0.00  0.00  1.00  0.00  0.00  0.00  0.00  0.00
  WSL2479                 1.00   0.00  0.00  0.00  1.00  0.00  0.00  0.00  0.49  0.00
  WSL2480                 1.00   0.00  0.00  0.00  1.00  0.00  0.00  0.00  0.00  0.00
  WSL2482                 1.00   0.00  0.00  0.00  1.00  0.00  0.00  0.00  0.51  0.00
  WSL2484                 1.00   0.00  0.00  0.00  0.99  0.01  0.00  0.00  0.55  0.00
  WSL2493                 1.00   0.00  0.00  0.00  1.00  0.00  0.00  0.00  0.05  0.00
  WSL2867                 1.00   0.00  0.00  0.00  0.00  1.00  0.00  0.00  0.21  0.00
  WSL2868                 1.00   0.00  0.00  0.00  0.95  0.05  0.00  0.00  0.79  0.00
  WSL348                  1.00   0.00  0.00  0.00  0.98  0.02  0.00  0.00  0.01  0.00
  WSL175                  1.00   0.00  0.00  0.00  0.91  0.09  0.00  0.00  0.01  0.00
  WSL1467                 1.00   0.00  0.00  0.00  1.00  0.00  0.00  0.00  0.13  0.00
  WSL1473                 1.00   0.00  0.00  0.00  1.00  0.00  0.00  0.00  0.04  0.00
  XRpipe                  1.00   0.00  0.00  0.00  0.92  0.08  0.00  0.00  0.04  0.00
  8                       1.00   0.69  0.00  0.00  0.00  0.31  0.00  0.00  0.05  0.00
  19                      1.00   1.00  0.00  0.00  0.00  0.00  0.00  0.00  0.00  0.00
  17                      1.00   1.00  0.00  0.00  0.00  0.00  0.00  0.00  0.00  0.00
  4                       1.00   1.00  0.00  0.00  0.00  0.00  0.00  0.00  0.00  0.00
  2                       1.00   0.00  0.00  0.00  0.00  1.00  0.00  0.00  0.31  0.00
  
  
  *************************
  Conduit Surcharge Summary
  *************************
  
  ----------------------------------------------------------------------------
                                                           Hours        Hours 
                         --------- Hours Full --------   Above Full   Capacity
  Conduit                Both Ends  Upstream  Dnstream   Normal Flow   Limited
  ----------------------------------------------------------------------------
  WSL49                       0.01      0.01      0.01      1.04         0.01
  WSL1472                     0.01      0.01      0.01      0.84         0.01
  WSL1475                     0.01      0.01      0.01      0.81         0.01
  WSL1476                     0.01      0.01      0.18      0.01         0.01
  WSL1515                     0.01      0.01      0.01      0.07         0.01
  WSL2012                     0.01      0.01      0.01      0.46         0.01
  WSL2013                     0.01      0.01      0.01      0.84         0.01
  WSL2014                     0.01      0.01      0.01      0.68         0.01
  WSL2015                     0.01      0.01      0.01      0.39         0.01
  WSL2016                     0.01      0.01      0.01      0.18         0.01
  WSL2017                     0.01      0.01      0.01      0.29         0.01
  WSL2029                     0.01      0.01      0.01      0.36         0.01
  WSL2038                     0.14      0.14      0.16      0.01         0.01
  WSL2039                     0.19      0.20      0.22      0.01         0.01
  WSL2041                     0.16      0.16      0.20      0.01         0.01
  WSL2294                     0.01      0.15      0.01      0.88         0.01
  WSL2295                     0.01      0.01      0.01      1.16         0.01
  WSL2297                     0.01      0.01      0.01      0.72         0.01
  WSL2298                     0.01      0.01      0.01      1.46         0.01
  WSL2441                     0.15      0.35      0.15      0.80         0.15
  WSL2442                     0.62      0.66      0.62      0.74         0.62
  WSL2443                     0.58      0.58      0.66      0.01         0.01
  WSL2444                     0.50      0.50      0.58      0.01         0.01
  WSL2446                     0.44      0.44      0.50      0.01         0.01
  WSL2447                     0.44      0.50      0.44      1.07         0.44
  WSL2448                     0.50      0.51      0.50      0.74         0.50
  WSL2449                     0.51      0.52      0.51      0.47         0.28
  WSL2450                     0.47      0.47      0.52      0.01         0.01
  WSL2451                     0.47      0.49      0.47      0.97         0.46
  WSL2452                     0.42      0.42      0.49      0.01         0.01
  WSL2454                     0.36      0.36      0.42      0.01         0.01
  WSL2478                     0.36      0.37      0.36      0.42         0.13
  WSL2479                     0.23      0.23      0.37      0.01         0.01
  WSL2480                     0.23      0.27      0.23      0.74         0.23
  WSL2482                     0.23      0.23      0.27      0.19         0.15
  WSL2484                     0.01      0.01      0.23      0.01         0.01
  WSL2493                     0.33      0.33      0.35      0.17         0.18
  WSL348                      3.02      3.02      3.06      0.01         0.01
  WSL175                      3.06      3.06      3.06      2.45         2.60
  XRpipe                      3.06      3.06      3.44      0.01         0.01
  
  
  ***************
  Pumping Summary
  ***************
  
  ---------------------------------------------------------------------------------------------------------
                                                  Min       Avg       Max     Total     Power    % Time Off
                        Percent   Number of      Flow      Flow      Flow    Volume     Usage    Pump Curve
  Pump                 Utilized   Start-Ups       MLD       MLD       MLD  10^6 ltr     Kw-hr    Low   High
  ---------------------------------------------------------------------------------------------------------
  XR-Pump-1               95.79           3      0.00      7.79      8.12     1.177      7.22    0.0    0.0
  XR-Pump-3               87.46           3      0.00      7.73      8.12     1.065      6.12    0.0    0.0
  XR-Pump-2               91.62           3      0.00      7.78      8.12     1.121      7.05    0.0    0.0
  XR-Pump-4               95.79           3      0.00      7.79      8.12     1.177      7.22    0.0    0.0
  CC-Pump-1               20.84           1      0.00     13.29     17.28     0.398      4.36    0.0    0.0
  CC-Pump-2               54.13           3      0.00     11.21     17.28     0.787      7.70    0.0    0.0
  JK-Pump-1               16.67           1      0.00     11.59     17.28     0.284      3.02    0.0    0.0
  JK-Pump-2               50.00           3      0.00     11.24     17.28     0.709      6.47    0.0    0.0
  
  
  ***************************
  Link Pollutant Load Summary
  ***************************
  
  ------------------------------------------------------------------------------------------
                                 COD         NH3-N            TN            TP            SS
  Link                            kg            kg            kg            kg            kg
  ------------------------------------------------------------------------------------------
  WSL49                     1544.442         0.000         0.000         0.000         0.000
  WSL1465                    624.191         0.000         0.000         0.000         0.000
  WSL1472                   1430.127         0.000         0.000         0.000         0.000
  WSL1475                   1562.359         0.000         0.000         0.000         0.000
  WSL1476                    112.870         0.000         0.000         0.000         0.000
  WSL1477                    110.886         0.000         0.000         0.000         0.000
  WSL1490                    611.706         0.000         0.000         0.000         0.000
  WSL1491                    615.543         0.000         0.000         0.000         0.000
  WSL1492                    620.992         0.000         0.000         0.000         0.000
  WSL1507                      0.739         0.000         0.000         0.000         0.000
  WSL1508                     70.066         0.000         0.000         0.000         0.000
  WSL1512                     70.334         0.000         0.000         0.000         0.000
  WSL1513                     71.603         0.000         0.000         0.000         0.000
  WSL1515                    798.856         0.000         0.000         0.000         0.000
  WSL1516                    111.577         0.000         0.000         0.000         0.000
  WSL1518                    108.723         0.000         0.000         0.000         0.000
  WSL1519                    109.149         0.000         0.000         0.000         0.000
  WSL1521                    110.080         0.000         0.000         0.000         0.000
  WSL1543                    108.880         0.000         0.000         0.000         0.000
  WSL1961                    600.318         0.000         0.000         0.000         0.000
  WSL1964                    607.975         0.000         0.000         0.000         0.000
  WSL2010                    496.247         0.000         0.000         0.000         0.000
  WSL2011                    501.083         0.000         0.000         0.000         0.000
  WSL2012                    506.256         0.000         0.000         0.000         0.000
  WSL2013                    532.569         0.000         0.000         0.000         0.000
  WSL2014                    669.294         0.000         0.000         0.000         0.000
  WSL2015                    669.958         0.000         0.000         0.000         0.000
  WSL2016                    742.718         0.000         0.000         0.000         0.000
  WSL2017                    744.606         0.000         0.000         0.000         0.000
  WSL2018                    792.023         0.000         0.000         0.000         0.000
  WSL2019                    793.696         0.000         0.000         0.000         0.000
  WSL2028                    491.703         0.000         0.000         0.000         0.000
  WSL2029                    749.384         0.000         0.000         0.000         0.000
  WSL2038                     45.202         0.000         0.000         0.000         0.000
  WSL2039                     51.997         0.000         0.000         0.000         0.000
  WSL2041                     49.090         0.000         0.000         0.000         0.000
  WSL2294                    472.892         0.000         0.000         0.000         0.000
  WSL2295                    473.424         0.000         0.000         0.000         0.000
  WSL2296                    482.297         0.000         0.000         0.000         0.000
  WSL2297                    485.801         0.000         0.000         0.000         0.000
  WSL2298                    476.745         0.000         0.000         0.000         0.000
  WSL2301                    486.630         0.000         0.000         0.000         0.000
  WSL2302                    491.460         0.000         0.000         0.000         0.000
  WSL2441                    472.331         0.000         0.000         0.000         0.000
  WSL2442                    313.448         0.000         0.000         0.000         0.000
  WSL2443                    312.520         0.000         0.000         0.000         0.000
  WSL2444                    309.563         0.000         0.000         0.000         0.000
  WSL2446                    307.838         0.000         0.000         0.000         0.000
  WSL2447                    304.361         0.000         0.000         0.000         0.000
  WSL2448                    300.463         0.000         0.000         0.000         0.000
  WSL2449                    205.050         0.000         0.000         0.000         0.000
  WSL2450                    202.729         0.000         0.000         0.000         0.000
  WSL2451                    201.807         0.000         0.000         0.000         0.000
  WSL2452                    200.351         0.000         0.000         0.000         0.000
  WSL2454                    196.366         0.000         0.000         0.000         0.000
  WSL2478                    194.640         0.000         0.000         0.000         0.000
  WSL2479                    160.525         0.000         0.000         0.000         0.000
  WSL2480                    183.661         0.000         0.000         0.000         0.000
  WSL2482                    179.961         0.000         0.000         0.000         0.000
  WSL2484                    153.631         0.000         0.000         0.000         0.000
  WSL2493                    315.848         0.000         0.000         0.000         0.000
  WSL2867                    799.516         0.000         0.000         0.000         0.000
  WSL2868                    803.514         0.000         0.000         0.000         0.000
  WSL348                    1038.467         0.000         0.000         0.000         0.000
  WSL175                    1044.772         0.000         0.000         0.000         0.000
  WSL1467                   1426.399         0.000         0.000         0.000         0.000
  WSL1473                   1432.956         0.000         0.000         0.000         0.000
  XRpipe                    1056.970         0.000         0.000         0.000         0.000
  8                           26.271         0.000         0.000         0.000         0.000
  19                           0.000         0.000         0.000         0.000         0.000
  17                           0.000         0.000         0.000         0.000         0.000
  4                            0.000         0.000         0.000         0.000         0.000
  2                         1575.124         0.000         0.000         0.000         0.000
  XR-Pump-1                  153.108         0.000         0.000         0.000         0.000
  XR-Pump-3                  139.483         0.000         0.000         0.000         0.000
  XR-Pump-2                  143.694         0.000         0.000         0.000         0.000
  XR-Pump-4                  153.108         0.000         0.000         0.000         0.000
  CC-Pump-1                   31.131         0.000         0.000         0.000         0.000
  CC-Pump-2                   69.169         0.000         0.000         0.000         0.000
  JK-Pump-1                   26.072         0.000         0.000         0.000         0.000
  JK-Pump-2                   66.543         0.000         0.000         0.000         0.000
  

  Analysis begun on:  Mon Mar 18 14:38:37 2019
  Analysis ended on:  Mon Mar 18 14:38:38 2019
  Total elapsed time: 00:00:01