
  EPA STORM WATER MANAGEMENT MODEL - VERSION 5.1 (Build 5.2.0.dev1)
  --------------------------------------------------------------

  
  *********************************************************
  NOTE: The summary statistics displayed in this report are
  based on results found at every computational time step,  
  not just on results from each reporting time step.
  *********************************************************
  
  ****************
  Analysis Options
  ****************
  Flow Units ............... MLD
  Process Models:
    Rainfall/Runoff ........ YES
    RDII ................... NO
    Snowmelt ............... NO
    Groundwater ............ NO
    Flow Routing ........... YES
    Ponding Allowed ........ NO
    Water Quality .......... YES
  Infiltration Method ...... GREEN_AMPT
  Flow Routing Method ...... DYNWAVE
  Starting Date ............ 08/28/2015 08:00:00
  Ending Date .............. 08/28/2015 12:00:00
  Antecedent Dry Days ...... 4.0
  Report Time Step ......... 00:01:00
  Wet Time Step ............ 00:01:00
  Dry Time Step ............ 00:01:00
  Routing Time Step ........ 5.00 sec
  Variable Time Step ....... YES
  Maximum Trials ........... 8
  Number of Threads ........ 1
  Head Tolerance ........... 0.001500 m
  
  
  **************************        Volume         Depth
  Runoff Quantity Continuity     hectare-m            mm
  **************************     ---------       -------
  Total Precipitation ......         6.603        23.408
  Evaporation Loss .........         0.000         0.000
  Infiltration Loss ........         2.701         9.574
  Surface Runoff ...........         1.831         6.492
  Final Storage ............         2.075         7.356
  Continuity Error (%) .....        -0.059
  
  
  **************************           COD         NH3-N            TN            TP            SS
  Runoff Quality Continuity             kg            kg            kg            kg            kg
  **************************    ----------    ----------    ----------    ----------    ----------
  Initial Buildup ..........     13074.240         0.000         0.000         0.000         0.000
  Surface Buildup ..........       106.707         0.000         0.000         0.000         0.000
  Wet Deposition ...........         0.000         0.000         0.000         0.000         0.000
  Sweeping Removal .........         0.000         0.000         0.000         0.000         0.000
  Infiltration Loss ........       226.440         0.000         0.000         0.000         0.000
  BMP Removal ..............         0.000         0.000         0.000         0.000         0.000
  Surface Runoff ...........      3692.574         0.000         0.000         0.000         0.000
  Remaining Buildup ........      9258.485         0.000         0.000         0.000         0.000
  Continuity Error (%) .....         0.026         0.000         0.000         0.000         0.000
  
  
  **************************        Volume        Volume
  Flow Routing Continuity        hectare-m      10^6 ltr
  **************************     ---------     ---------
  Dry Weather Inflow .......         0.000         0.000
  Wet Weather Inflow .......         1.826        18.257
  Groundwater Inflow .......         0.000         0.000
  RDII Inflow ..............         0.000         0.000
  External Inflow ..........         0.561         5.611
  External Outflow .........         1.310        13.099
  Flooding Loss ............         1.003        10.030
  Evaporation Loss .........         0.000         0.000
  Exfiltration Loss ........         0.000         0.000
  Initial Stored Volume ....         0.000         0.000
  Final Stored Volume ......         0.112         1.119
  Continuity Error (%) .....        -1.595
  
  
  **************************           COD         NH3-N            TN            TP            SS
  Quality Routing Continuity            kg            kg            kg            kg            kg
  **************************    ----------    ----------    ----------    ----------    ----------
  Dry Weather Inflow .......         0.000         0.000         0.000         0.000         0.000
  Wet Weather Inflow .......      3685.470         0.000         0.000         0.000         0.000
  Groundwater Inflow .......         0.000         0.000         0.000         0.000         0.000
  RDII Inflow ..............         0.000         0.000         0.000         0.000         0.000
  External Inflow ..........       937.004         0.000         0.000         0.000         0.000
  External Outflow .........      2323.325         0.000         0.000         0.000         0.000
  Flooding Loss ............      1954.459         0.000         0.000         0.000         0.000
  Exfiltration Loss ........         0.000         0.000         0.000         0.000         0.000
  Mass Reacted .............         0.000         0.000         0.000         0.000         0.000
  Initial Stored Mass ......         0.000         0.000         0.000         0.000         0.000
  Final Stored Mass ........       155.447         0.000         0.000         0.000         0.000
  Continuity Error (%) .....         4.094         0.000         0.000         0.000         0.000
  
  
  *************************
  Highest Continuity Errors
  *************************
  Node WS02003099 (1.17%)
  
  
  ***************************
  Time-Step Critical Elements
  ***************************
  Link 8 (44.96%)
  Link WSL2448 (27.80%)
  Link WSL1477 (15.77%)
  Link XRpipe (5.17%)
  
  
  ********************************
  Highest Flow Instability Indexes
  ********************************
  Link WSL1477 (71)
  Link WSL1516 (64)
  Link WSL1521 (33)
  Link WSL1476 (27)
  Link WSL1515 (18)
  
  
  *************************
  Routing Time Step Summary
  *************************
  Minimum Time Step           :     0.34 sec
  Average Time Step           :     1.63 sec
  Maximum Time Step           :     5.00 sec
  Percent in Steady State     :    -0.00
  Average Iterations per Step :     2.58
  Percent Not Converging      :     6.45
  
  
  ***************************
  Subcatchment Runoff Summary
  ***************************
  
  --------------------------------------------------------------------------------------------------------
                            Total      Total      Total      Total      Total       Total     Peak  Runoff
                           Precip      Runon       Evap      Infil     Runoff      Runoff   Runoff   Coeff
  Subcatchment                 mm         mm         mm         mm         mm    10^6 ltr      MLD
  --------------------------------------------------------------------------------------------------------
  1                         23.41      30.68       0.00      10.65      27.72        0.34     7.15   0.513
  2                         23.41       0.00       0.00       8.48       8.51        0.29     7.44   0.364
  3                         23.41       0.00       0.00       8.55       8.02        0.41    10.43   0.343
  4                         23.41       0.00       0.00       8.44       8.81        0.23     6.14   0.376
  5                         23.41      20.90       0.00      10.31      21.24        0.36     8.25   0.479
  6                         23.41       0.00       0.00       8.54       8.06        0.40    10.16   0.344
  7                         23.41       0.00       0.00      10.07       6.89       11.03   218.77   0.294
  8                         23.41       0.00       0.00       8.52       8.24        0.35     8.97   0.352
  9                         23.41       8.14       0.00       9.40      12.12        0.46    10.98   0.384
  17                        23.41       0.00       0.00       8.50       8.41        0.31     7.98   0.359
  18                        23.41       0.00       0.00       8.52       8.21        0.36     9.15   0.351
  28                        23.41      28.20       0.00      10.82      23.08        0.61    12.74   0.447
  29                        23.41      11.95       0.00       9.50      14.55        0.35     8.09   0.412
  30                        23.41      32.17       0.00      10.83      31.11        0.29     6.53   0.560
  31                        23.41       0.00       0.00       8.49       8.45        0.30     7.77   0.361
  33                        23.41       0.00       0.00       8.20      10.38        0.09     2.49   0.443
  34                        23.41      18.31       0.00      10.17      19.07        0.39     9.11   0.457
  35                        23.41       0.00       0.00       8.47       8.65        0.26     6.83   0.369
  36                        23.41      17.29       0.00      10.32      15.32        0.90    19.95   0.376
  39                        23.41       0.00       0.00       8.49       8.50        0.29     7.52   0.363
  40                        23.41       4.57       0.00       9.03      10.37        0.41    10.01   0.371
  41                        23.41       0.00       0.00       8.38       9.23        0.18     4.76   0.394
  42                        23.41       0.00       0.00       8.41       9.01        0.21     5.42   0.385
  43                        23.41       0.00       0.00       7.96      11.74        0.04     1.22   0.502
  44                        23.41     254.30       0.00      16.62     222.40        0.82    16.19   0.801
  45                        23.41       0.00       0.00       8.24      10.13        0.10     2.85   0.433
  46                        23.41      14.62       0.00       9.82      16.67        0.36     8.33   0.438
  47                        23.41       0.00       0.00       8.26      10.02        0.11     3.03   0.428
  48                        23.41       7.02       0.00       9.07      13.27        0.21     5.26   0.436
  55                        23.41      10.53       0.00       9.18      16.85        0.14     3.52   0.496
  56                        23.41      16.04       0.00       9.93      17.43        0.37     8.62   0.442
  57                        23.41       0.00       0.00       8.54       8.04        0.40    10.26   0.344
  59                        23.41       0.00       0.00       8.19      10.43        0.09     2.42   0.446
  60                        23.41      22.80       0.00       9.90      26.71        0.14     3.36   0.578
  61                        23.41       0.00       0.00       8.69       6.73        1.21    29.27   0.287
  62                        23.41       0.00       0.00       8.69       6.68        1.27    30.60   0.285
  64                        23.41       0.00       0.00       8.28       9.90        0.12     3.22   0.423
  
  
  ****************************
  Subcatchment Washoff Summary
  ****************************
  
  ------------------------------------------------------------------------------------------
                                 COD         NH3-N            TN            TP            SS
  Subcatchment                    kg            kg            kg            kg            kg
  ------------------------------------------------------------------------------------------
  1                           61.087         0.000         0.000         0.000         0.000
  2                            0.000         0.000         0.000         0.000         0.000
  3                            0.000         0.000         0.000         0.000         0.000
  4                           50.315         0.000         0.000         0.000         0.000
  5                          108.392         0.000         0.000         0.000         0.000
  6                           81.440         0.000         0.000         0.000         0.000
  7                         2110.139         0.000         0.000         0.000         0.000
  8                           72.314         0.000         0.000         0.000         0.000
  9                          130.165         0.000         0.000         0.000         0.000
  17                          64.633         0.000         0.000         0.000         0.000
  18                          73.637         0.000         0.000         0.000         0.000
  28                         219.548         0.000         0.000         0.000         0.000
  29                         113.554         0.000         0.000         0.000         0.000
  30                          79.232         0.000         0.000         0.000         0.000
  31                          62.983         0.000         0.000         0.000         0.000
  33                          20.944         0.000         0.000         0.000         0.000
  34                         122.370         0.000         0.000         0.000         0.000
  35                          55.682         0.000         0.000         0.000         0.000
  36                         306.998         0.000         0.000         0.000         0.000
  39                          61.042         0.000         0.000         0.000         0.000
  40                         104.985         0.000         0.000         0.000         0.000
  41                          39.343         0.000         0.000         0.000         0.000
  42                          44.623         0.000         0.000         0.000         0.000
  43                          10.266         0.000         0.000         0.000         0.000
  44                         280.628         0.000         0.000         0.000         0.000
  45                          23.940         0.000         0.000         0.000         0.000
  46                         116.691         0.000         0.000         0.000         0.000
  47                          25.395         0.000         0.000         0.000         0.000
  48                          60.252         0.000         0.000         0.000         0.000
  55                          42.081         0.000         0.000         0.000         0.000
  56                         120.603         0.000         0.000         0.000         0.000
  57                          82.209         0.000         0.000         0.000         0.000
  59                          20.368         0.000         0.000         0.000         0.000
  60                          39.832         0.000         0.000         0.000         0.000
  61                         222.389         0.000         0.000         0.000         0.000
  62                         231.867         0.000         0.000         0.000         0.000
  64                          27.004         0.000         0.000         0.000         0.000
  ------------------------------------------------------------------------------------------
  System                    5286.949         0.000         0.000         0.000         0.000
  
  
  ******************
  Node Depth Summary
  ******************
  
  ---------------------------------------------------------------------------------
                                 Average  Maximum  Maximum  Time of Max    Reported
                                   Depth    Depth      HGL   Occurrence   Max Depth
  Node                 Type       Meters   Meters   Meters  days hr:min      Meters
  ---------------------------------------------------------------------------------
  WS01000070           JUNCTION     0.00     0.00     0.00     0  00:00        0.00
  WS01000323           JUNCTION     0.00     0.00     0.00     0  00:00        0.00
  WS01000533           JUNCTION     0.00     0.00     6.86     0  00:00        0.00
  WS01005172           JUNCTION     0.00     0.00     0.00     0  00:00        0.00
  WS01005181           JUNCTION     0.00     0.00     0.00     0  00:00        0.00
  WS01009841           JUNCTION     0.00     0.00     0.00     0  00:00        0.00
  WS02000078           JUNCTION     0.00     0.00     0.00     0  00:00        0.00
  WS02000112           JUNCTION     0.00     0.00     0.00     0  00:00        0.00
  WS02000136           JUNCTION     0.00     0.00     0.00     0  00:00        0.00
  WS02001211           JUNCTION     0.50     0.72     5.56     0  03:05        0.72
  WS02001212           JUNCTION     0.47     0.73     5.53     0  03:03        0.71
  WS02001213           JUNCTION     0.57     0.83     5.53     0  03:03        0.82
  WS02003059           JUNCTION     0.58     0.87     5.52     0  03:06        0.84
  WS02003060           JUNCTION     0.65     0.97     5.52     0  03:02        0.97
  WS02003066           JUNCTION     0.30     0.49     5.79     0  03:09        0.47
  WS02003067           JUNCTION     0.51     0.82     6.14     0  03:06        0.80
  WS02003071           JUNCTION     0.70     1.06     5.46     0  03:01        1.02
  WS02003072           JUNCTION     0.60     0.97     5.34     0  03:01        0.90
  WS02003073           JUNCTION     0.67     1.09     5.33     0  03:01        1.08
  WS02003076           JUNCTION     0.61     0.99     5.22     0  03:01        0.83
  WS02003077           JUNCTION     0.11     0.35     5.36     0  03:02        0.28
  WS02003078           JUNCTION     0.07     0.10     7.00     0  03:05        0.10
  WS02003079           JUNCTION     0.21     0.33     7.24     0  03:04        0.33
  WS02003093           JUNCTION     0.07     0.16     7.50     0  03:01        0.16
  WS02003094           JUNCTION     0.18     0.28     7.50     0  03:01        0.28
  WS02003098           JUNCTION     0.12     0.23     7.40     0  03:03        0.23
  WS02003099           JUNCTION     0.23     0.36     7.40     0  03:02        0.36
  WS02003102           JUNCTION     0.21     0.35     7.38     0  03:03        0.35
  WS02003103           JUNCTION     0.24     0.37     7.34     0  03:03        0.37
  WS02003104           JUNCTION     0.23     0.36     7.32     0  03:04        0.36
  WS02003106           JUNCTION     0.23     0.35     7.28     0  03:04        0.35
  WS02004050           JUNCTION     0.43     0.61     4.83     0  03:03        0.60
  WS02004053           JUNCTION     0.00     0.00     0.00     0  00:00        0.00
  WS02004136           JUNCTION     0.17     0.21     6.94     0  00:01        0.18
  WS02004139           JUNCTION     0.41     0.62     5.58     0  03:04        0.62
  WS02004401           JUNCTION     0.58     0.92     6.92     0  03:03        0.92
  WS02004402           JUNCTION     0.59     0.93     6.89     0  03:02        0.93
  WS02004403           JUNCTION     0.58     0.93     6.86     0  03:03        0.92
  WS02004404           JUNCTION     0.66     0.99     6.84     0  03:03        0.99
  WS02004405           JUNCTION     0.65     0.98     6.82     0  03:03        0.98
  WS02004406           JUNCTION     0.62     0.94     6.77     0  03:02        0.94
  WS02004407           JUNCTION     0.59     0.89     6.69     0  03:02        0.89
  WS02004409           JUNCTION     0.57     0.85     6.62     0  03:01        0.85
  WS02004410           JUNCTION     0.54     0.81     6.53     0  03:01        0.81
  WS02004411           JUNCTION     0.50     0.75     6.43     0  03:00        0.75
  WS02004412           JUNCTION     0.44     0.67     6.31     0  03:00        0.67
  WS02004413           JUNCTION     0.46     0.71     6.18     0  03:06        0.70
  WS02004997           JUNCTION     5.85     6.70     8.31     0  02:48        6.68
  WS02005192           JUNCTION     0.38     2.27    10.14     0  02:48        0.76
  WS02005193           JUNCTION     0.41     3.22    11.04     0  02:48        0.80
  WS02005196           JUNCTION     0.39     2.25    10.10     0  02:48        0.78
  WS02006109           JUNCTION     0.61     0.92     7.54     0  03:01        0.92
  WS02006110           JUNCTION     0.55     0.81     7.41     0  03:01        0.81
  WS02006111           JUNCTION     0.32     0.52     7.10     0  03:02        0.52
  WS02006112           JUNCTION     0.59     0.92     7.04     0  03:03        0.92
  WS02006113           JUNCTION     0.46     0.68     7.27     0  03:01        0.68
  WS02006115           JUNCTION     0.55     0.89     6.99     0  03:03        0.89
  WS02006116           JUNCTION     0.58     0.92     6.96     0  03:03        0.92
  WS02006183           JUNCTION     0.00     0.00     0.00     0  00:00        0.00
  WS02006228           JUNCTION     0.65     1.01     7.66     0  03:01        1.01
  WS02006229           JUNCTION     0.64     1.01     7.70     0  03:01        1.01
  WS02006230           JUNCTION     0.67     1.10     7.85     0  03:01        1.10
  WS02006231           JUNCTION     0.62     1.09     7.99     0  03:01        1.09
  WS02006232           JUNCTION     0.60     1.08     8.11     0  03:00        1.08
  WS02006234           JUNCTION     0.58     1.06     8.22     0  03:00        1.06
  WS02006235           JUNCTION     0.64     1.13     8.30     0  03:00        1.12
  WS02006238           JUNCTION     0.65     1.14     8.32     0  03:00        1.14
  WS02006239           JUNCTION     0.64     1.12     8.33     0  03:00        1.12
  WS02006242           JUNCTION     0.62     1.12     8.42     0  02:47        1.05
  WS02006240           JUNCTION     0.59     1.08     8.37     0  02:46        1.05
  WS02006243           JUNCTION     0.54     1.10     8.52     0  02:47        0.95
  WS02006245           JUNCTION     0.52     1.04     8.53     0  02:47        0.89
  WS02006247           JUNCTION     0.53     1.05     8.56     0  02:47        0.88
  WS02006248           JUNCTION     0.47     0.80     8.39     0  03:01        0.80
  WS02006249           JUNCTION     0.49     1.09     8.69     0  02:48        0.84
  WS02006251           JUNCTION     0.49     1.98     9.65     0  02:48        0.89
  WS02006253           JUNCTION     0.42     2.40    10.20     0  02:48        0.81
  WS02618401           JUNCTION     0.00     0.00     0.00     0  00:00        0.00
  WS8802               JUNCTION     0.00     0.00     4.38     0  00:00        0.00
  WSA1649              JUNCTION     0.00     0.00     0.00     0  00:00        0.00
  WSF200               JUNCTION     0.30     0.51     5.61     0  03:06        0.50
  XR-Inflow            JUNCTION     5.71     6.55     8.36     0  02:00        6.55
  WS02004114           JUNCTION     5.81     6.66     8.26     0  02:46        6.65
  outfall-2            OUTFALL      0.00     0.00     7.00     0  00:00        0.00
  outfall-5            OUTFALL      0.07     0.20     7.87     0  03:01        0.20
  outfall-14           OUTFALL      0.00     0.00     7.66     0  00:00        0.00
  outfall-16           OUTFALL      0.00     0.00     8.39     0  00:00        0.00
  12                   OUTFALL      0.42     0.60     0.60     0  03:03        0.59
  XR-storage           STORAGE      6.81     7.72     8.22     0  01:24        7.72
  CC-storage           STORAGE      1.47     5.63     8.81     0  02:27        5.63
  JK-storage           STORAGE      1.18     4.80     7.80     0  02:24        4.80
  
  
  *******************
  Node Inflow Summary
  *******************
  
  -------------------------------------------------------------------------------------------------
                                  Maximum  Maximum                  Lateral       Total        Flow
                                  Lateral    Total  Time of Max      Inflow      Inflow     Balance
                                   Inflow   Inflow   Occurrence      Volume      Volume       Error
  Node                 Type           MLD      MLD  days hr:min    10^6 ltr    10^6 ltr     Percent
  -------------------------------------------------------------------------------------------------
  WS01000070           JUNCTION      0.00     0.00     0  00:00           0           0       0.000 ltr
  WS01000323           JUNCTION      0.00     0.00     0  00:00           0           0       0.000 ltr
  WS01000533           JUNCTION      0.00     0.00     0  00:00           0           0       0.000 ltr
  WS01005172           JUNCTION      0.00     0.00     0  00:00           0           0       0.000 ltr
  WS01005181           JUNCTION      0.00     0.00     0  00:00           0           0       0.000 ltr
  WS01009841           JUNCTION      0.00     0.00     0  00:00           0           0       0.000 ltr
  WS02000078           JUNCTION      0.00     0.00     0  00:00           0           0       0.000 ltr
  WS02000112           JUNCTION      0.00     0.00     0  00:00           0           0       0.000 ltr
  WS02000136           JUNCTION      0.00     0.00     0  00:00           0           0       0.000 ltr
  WS02001211           JUNCTION      0.25    38.96     0  03:06      0.0407        4.69       0.566
  WS02001212           JUNCTION      0.21    42.32     0  03:05      0.0346         4.7       0.324
  WS02001213           JUNCTION      0.30    55.45     0  03:28      0.0489        4.73       0.431
  WS02003059           JUNCTION      0.23    44.66     0  03:06      0.0378        4.75       0.569
  WS02003060           JUNCTION      0.16   181.65     0  03:06      0.0252        11.5       0.366
  WS02003066           JUNCTION      0.08   160.32     0  03:06      0.0122        6.77       0.174
  WS02003067           JUNCTION      0.26   124.53     0  03:02      0.0395        6.76       0.141
  WS02003071           JUNCTION      0.35   171.10     0  03:07      0.0538        11.5       0.389
  WS02003072           JUNCTION      0.24   170.46     0  03:07      0.0382        11.5       0.254
  WS02003073           JUNCTION      0.07   194.20     0  03:02     0.00978        12.3       0.283
  WS02003076           JUNCTION      0.72   212.85     0  03:03        0.12        12.4       0.136
  WS02003077           JUNCTION      0.04    18.47     0  03:05      0.0059       0.835       0.127
  WS02003078           JUNCTION      0.03    20.95     0  03:04     0.00419       0.829      -0.019
  WS02003079           JUNCTION      0.04    18.01     0  03:04     0.00561       0.827       0.277
  WS02003093           JUNCTION      0.02     0.16     0  03:01     0.00306     0.00417       5.717
  WS02003094           JUNCTION     11.03    11.03     0  03:01       0.467       0.471       0.886
  WS02003098           JUNCTION      0.02    10.63     0  03:01     0.00293       0.468       0.584
  WS02003099           JUNCTION      0.07    10.43     0  03:03      0.0109       0.476       1.183
  WS02003102           JUNCTION      9.00    18.21     0  03:01       0.353       0.824       0.598
  WS02003103           JUNCTION      0.02    18.02     0  03:03     0.00239       0.821       0.420
  WS02003104           JUNCTION      0.02    17.98     0  03:03     0.00302       0.821       0.359
  WS02003106           JUNCTION      0.05    17.99     0  03:04     0.00727       0.825       0.438
  WS02004050           JUNCTION      0.72   214.77     0  03:01       0.119        12.5       0.537
  WS02004053           JUNCTION      0.00     0.00     0  00:00           0           0       0.000 ltr
  WS02004136           JUNCTION      0.44    32.92     0  01:40      0.0703        4.61       0.066
  WS02004139           JUNCTION      0.38    39.53     0  00:01      0.0619        4.67       0.374
  WS02004401           JUNCTION      0.05    86.95     0  03:04     0.00897        4.98       0.194
  WS02004402           JUNCTION      0.22    87.57     0  03:05      0.0335        5.01       0.184
  WS02004403           JUNCTION      0.23    88.74     0  03:05      0.0349        5.03       0.159
  WS02004404           JUNCTION      0.24    88.39     0  03:05      0.0365        5.06       0.166
  WS02004405           JUNCTION      6.21    94.68     0  03:10       0.246         5.3       0.188
  WS02004406           JUNCTION     12.85   104.54     0  03:03       0.626        5.92       0.291
  WS02004407           JUNCTION      0.11   104.69     0  03:03      0.0171        5.92       0.260
  WS02004409           JUNCTION      8.43   112.25     0  03:04       0.394        6.29       0.218
  WS02004410           JUNCTION      0.15   112.80     0  03:04      0.0226         6.3       0.218
  WS02004411           JUNCTION      0.25   113.14     0  03:03      0.0379        6.33       0.191
  WS02004412           JUNCTION     10.25   122.11     0  03:03       0.412        6.73       0.152
  WS02004413           JUNCTION      0.11   122.55     0  03:02      0.0172        6.73       0.146
  WS02004997           JUNCTION      0.42    63.60     0  02:48      0.0693        7.69       0.538
  WS02005192           JUNCTION     10.36    10.36     0  03:01       0.419        0.42       0.132
  WS02005193           JUNCTION      0.09    17.10     0  02:48      0.0146       0.461       0.204
  WS02005196           JUNCTION      0.12    11.18     0  02:48       0.019       0.442       0.301
  WS02006109           JUNCTION      0.08    77.53     0  03:01      0.0135        4.48       0.254
  WS02006110           JUNCTION      0.08    77.60     0  03:01      0.0132        4.48       0.236
  WS02006111           JUNCTION      0.24    87.93     0  03:01      0.0366        4.93       0.082
  WS02006112           JUNCTION      0.18    87.61     0  03:01      0.0273        4.96       0.207
  WS02006113           JUNCTION     10.57    87.97     0  03:01       0.435         4.9       0.164
  WS02006115           JUNCTION      0.08    87.45     0  03:02      0.0134        4.96       0.207
  WS02006116           JUNCTION      0.24    87.07     0  03:02       0.036        4.98       0.201
  WS02006183           JUNCTION      0.00     0.00     0  00:00           0           0       0.000 ltr
  WS02006228           JUNCTION     16.34    77.45     0  03:01       0.849        4.47       0.186
  WS02006229           JUNCTION      0.13    62.11     0  02:50        0.02        3.63       0.187
  WS02006230           JUNCTION      0.07    61.97     0  02:50      0.0116        3.62       0.182
  WS02006231           JUNCTION      0.13    61.90     0  02:50      0.0205        3.61       0.080
  WS02006232           JUNCTION      7.52    61.78     0  02:54         0.3        3.59       0.085
  WS02006234           JUNCTION      0.14    56.81     0  02:50      0.0216        3.29       0.084
  WS02006235           JUNCTION      0.14    56.69     0  02:50      0.0223        3.27       0.058
  WS02006238           JUNCTION      0.15    56.57     0  02:50      0.0235        3.25       0.079
  WS02006239           JUNCTION      0.11    35.61     0  03:26      0.0174        1.93       0.225
  WS02006242           JUNCTION      0.08    35.33     0  03:26      0.0129        1.91       0.280
  WS02006240           JUNCTION      0.06    35.42     0  03:26     0.00992        1.91       0.190
  WS02006243           JUNCTION      0.17    35.12     0  03:24      0.0269         1.9       0.167
  WS02006245           JUNCTION      0.07    35.77     0  02:46      0.0113        1.87       0.148
  WS02006247           JUNCTION      7.28    37.14     0  02:46       0.359        1.86       0.153
  WS02006248           JUNCTION      0.12    49.06     0  03:01      0.0192        2.14       0.065
  WS02006249           JUNCTION      0.19    48.94     0  03:01      0.0286        2.12       0.103
  WS02006251           JUNCTION      3.58    48.79     0  03:01       0.149        2.09       0.088
  WS02006253           JUNCTION      0.11    45.20     0  03:01      0.0173        1.95       0.035
  WS02618401           JUNCTION      0.00     0.00     0  00:00           0           0       0.000 ltr
  WS8802               JUNCTION      0.00     0.00     0  00:00           0           0       0.000 ltr
  WSA1649              JUNCTION      0.00     0.00     0  00:00           0           0       0.000 ltr
  WSF200               JUNCTION      0.14   144.84     0  03:07      0.0216        6.78       0.000
  XR-Inflow            JUNCTION    236.33   236.33     0  03:01        14.3        14.3       0.188
  WS02004114           JUNCTION      0.57    64.14     0  02:48      0.0916        7.74       0.349
  outfall-2            OUTFALL       0.00     0.00     0  00:00           0           0       0.000 ltr
  outfall-5            OUTFALL       0.00    37.94     0  03:01           0       0.632       0.000
  outfall-14           OUTFALL       0.00     0.00     0  00:00           0           0       0.000 ltr
  outfall-16           OUTFALL       0.00     0.00     0  00:00           0           0       0.000 ltr
  12                   OUTFALL       0.00   183.56     0  03:03           0        12.5       0.000
  XR-storage           STORAGE       0.00    64.15     0  02:48           0        7.71      -0.746
  CC-storage           STORAGE      30.73    30.73     0  03:01         1.5         1.5     -11.048
  JK-storage           STORAGE      31.50    31.50     0  03:01        1.44        1.44      -5.679
  
  
  **********************
  Node Surcharge Summary
  **********************
  
  Surcharging occurs when water rises above the top of the highest conduit.
  ---------------------------------------------------------------------
                                               Max. Height   Min. Depth
                                   Hours       Above Crown    Below Rim
  Node                 Type      Surcharged         Meters       Meters
  ---------------------------------------------------------------------
  WS01000070           JUNCTION        4.00          0.000        0.000
  WS01000323           JUNCTION        4.00          0.000        0.000
  WS01000533           JUNCTION        4.00          0.000        2.147
  WS01005172           JUNCTION        4.00          0.000        0.000
  WS01005181           JUNCTION        4.00          0.000        0.000
  WS01009841           JUNCTION        4.00          0.000        0.000
  WS02000078           JUNCTION        4.00          0.000        0.000
  WS02000112           JUNCTION        4.00          0.000        0.000
  WS02000136           JUNCTION        4.00          0.000        0.000
  WS02004053           JUNCTION        4.00          0.000        0.000
  WS02004997           JUNCTION        3.07          5.795        0.205
  WS02005192           JUNCTION        0.45          1.669        1.150
  WS02005193           JUNCTION        0.49          2.617        0.000
  WS02005196           JUNCTION        0.46          1.649        1.057
  WS02006109           JUNCTION        0.50          0.124        1.714
  WS02006110           JUNCTION        0.07          0.008        1.837
  WS02006183           JUNCTION        4.00          0.000        0.000
  WS02006228           JUNCTION        0.66          0.212        2.019
  WS02006229           JUNCTION        0.62          0.214        2.240
  WS02006231           JUNCTION        0.79          0.387        1.156
  WS02006232           JUNCTION        0.73          0.379        1.110
  WS02006234           JUNCTION        0.65          0.360        0.897
  WS02006235           JUNCTION        0.71          0.426        0.868
  WS02006238           JUNCTION        0.71          0.438        0.996
  WS02006239           JUNCTION        0.72          0.420        0.909
  WS02006242           JUNCTION        0.71          0.419        0.430
  WS02006240           JUNCTION        0.69          0.380        1.023
  WS02006243           JUNCTION        0.65          0.403        0.377
  WS02006245           JUNCTION        0.62          0.345        0.510
  WS02006247           JUNCTION        0.63          0.347        0.413
  WS02006249           JUNCTION        0.55          0.388        0.000
  WS02006251           JUNCTION        0.52          1.284        0.226
  WS02006253           JUNCTION        0.41          1.703        0.751
  WS02618401           JUNCTION        4.00          0.000        0.000
  WS8802               JUNCTION        4.00          0.000        4.942
  WSA1649              JUNCTION        4.00          0.000        0.000
  XR-Inflow            JUNCTION        3.03          5.650        0.000
  WS02004114           JUNCTION        3.07          5.758        0.757
  
  
  *********************
  Node Flooding Summary
  *********************
  
  Flooding refers to all water that overflows a node, whether it ponds or not.
  --------------------------------------------------------------------------
                                                             Total   Maximum
                                 Maximum   Time of Max       Flood    Ponded
                        Hours       Rate    Occurrence      Volume     Depth
  Node                 Flooded       MLD   days hr:min    10^6 ltr    Meters
  --------------------------------------------------------------------------
  WS02005193              0.01     10.07      0  02:48       0.000     0.000
  WS02006249              0.01      2.75      0  02:48       0.000     0.000
  XR-Inflow               1.96    173.16      0  03:01       6.690     0.000
  XR-storage              2.60     33.89      0  01:30       3.167     0.000
  CC-storage              0.21     14.16      0  02:30       0.077     0.000
  JK-storage              0.25     14.13      0  02:30       0.097     0.000
  
  
  **********************
  Storage Volume Summary
  **********************
  
  --------------------------------------------------------------------------------------------------
                         Average     Avg  Evap Exfil       Maximum     Max    Time of Max    Maximum
                          Volume    Pcnt  Pcnt  Pcnt        Volume    Pcnt     Occurrence    Outflow
  Storage Unit           1000 m3    Full  Loss  Loss       1000 m3    Full    days hr:min        MLD
  --------------------------------------------------------------------------------------------------
  XR-storage               0.055      88     0     0         0.063     100       0  01:24      32.48
  CC-storage               0.041      26     0     0         0.159     100       0  02:27      34.56
  JK-storage               0.033      25     0     0         0.136     100       0  02:24      34.56
  
  
  ***********************
  Outfall Loading Summary
  ***********************
  
  ---------------------------------------------------------------------------------------------------------------------------------
                         Flow       Avg       Max       Total         Total         Total         Total         Total         Total
                         Freq      Flow      Flow      Volume           COD         NH3-N            TN            TP            SS
  Outfall Node           Pcnt       MLD       MLD    10^6 ltr            kg            kg            kg            kg            kg
  ---------------------------------------------------------------------------------------------------------------------------------
  outfall-2              0.00      0.00      0.00       0.000         0.000         0.000         0.000         0.000         0.000
  outfall-5             47.28     25.43     37.94       0.632       139.526         0.000         0.000         0.000         0.000
  outfall-14             0.00      0.00      0.00       0.000         0.000         0.000         0.000         0.000         0.000
  outfall-16             0.00      0.00      0.00       0.000         0.000         0.000         0.000         0.000         0.000
  12                    99.99    108.74    183.56      12.467      2183.887         0.000         0.000         0.000         0.000
  ---------------------------------------------------------------------------------------------------------------------------------
  System                29.45    134.17    218.35      13.099      2323.414         0.000         0.000         0.000         0.000
  
  
  ********************
  Link Flow Summary
  ********************
  
  -----------------------------------------------------------------------------
                                 Maximum  Time of Max   Maximum    Max/    Max/
                                  |Flow|   Occurrence   |Veloc|    Full    Full
  Link                 Type          MLD  days hr:min     m/sec    Flow   Depth
  -----------------------------------------------------------------------------
  WSL49                CONDUIT    212.13     0  03:03      2.80    2.64    0.83
  WSL1465              CONDUIT     48.59     0  03:06      1.99    0.44    0.90
  WSL1472              CONDUIT    170.24     0  03:07      2.17    1.94    0.82
  WSL1475              CONDUIT    214.05     0  03:01      3.38    2.28    0.53
  WSL1476              CONDUIT     41.83     0  03:02      1.40    0.20    0.72
  WSL1477              CONDUIT     20.93     0  03:04      2.61    0.83    0.36
  WSL1490              CONDUIT     42.11     0  03:05      1.60    0.68    0.71
  WSL1491              CONDUIT     55.17     0  03:28      1.86    0.32    0.76
  WSL1492              CONDUIT     44.43     0  03:06      1.71    0.68    0.84
  WSL1507              CONDUIT      0.24     0  03:02      0.11    0.00    0.27
  WSL1508              CONDUIT     10.62     0  03:01      0.91    0.30    0.31
  WSL1512              CONDUIT     10.38     0  03:03      0.62    0.07    0.30
  WSL1513              CONDUIT     10.56     0  03:04      0.57    0.62    0.44
  WSL1515              CONDUIT    160.25     0  03:06      3.19    1.56    0.51
  WSL1516              CONDUIT     18.44     0  03:05      4.65    0.06    0.37
  WSL1518              CONDUIT     18.01     0  03:03      0.96    0.35    0.45
  WSL1519              CONDUIT     17.96     0  03:04      0.96    0.45    0.45
  WSL1521              CONDUIT     17.98     0  03:04      1.01    0.52    0.43
  WSL1543              CONDUIT     17.96     0  03:03      0.93    0.56    0.46
  WSL1961              CONDUIT     39.15     0  00:01      3.75    0.08    0.40
  WSL1964              CONDUIT     38.72     0  03:06      1.79    0.21    0.56
  WSL2010              CONDUIT     88.55     0  03:05      1.37    1.13    0.93
  WSL2011              CONDUIT     88.20     0  03:05      1.34    0.57    0.96
  WSL2012              CONDUIT     91.41     0  03:10      1.39    1.39    0.98
  WSL2013              CONDUIT     92.79     0  03:04      1.39    2.30    0.96
  WSL2014              CONDUIT    104.60     0  03:03      1.62    1.67    0.91
  WSL2015              CONDUIT    104.85     0  03:04      1.69    1.41    0.87
  WSL2016              CONDUIT    112.68     0  03:04      1.88    1.30    0.83
  WSL2017              CONDUIT    112.94     0  03:03      2.01    1.37    0.78
  WSL2018              CONDUIT    122.45     0  03:02      2.55    0.73    0.69
  WSL2019              CONDUIT    124.33     0  03:02      2.48    0.73    0.76
  WSL2028              CONDUIT     87.39     0  03:05      1.39    0.93    0.93
  WSL2029              CONDUIT    113.38     0  03:03      2.26    1.43    0.71
  WSL2038              CONDUIT     10.36     0  03:01      0.70    0.52    1.00
  WSL2039              CONDUIT     10.55     0  03:01      1.04    0.54    1.00
  WSL2041              CONDUIT     10.49     0  02:48      0.79    0.51    1.00
  WSL2294              CONDUIT     77.53     0  03:01      1.79    2.60    1.00
  WSL2295              CONDUIT     77.66     0  03:01      1.87    3.49    0.93
  WSL2296              CONDUIT     87.47     0  03:01      2.29    0.49    0.83
  WSL2297              CONDUIT     87.37     0  03:02      1.47    1.67    0.90
  WSL2298              CONDUIT     87.74     0  03:01      2.66    4.04    0.75
  WSL2301              CONDUIT     86.87     0  03:02      1.47    0.80    0.90
  WSL2302              CONDUIT     86.90     0  03:04      1.42    1.07    0.92
  WSL2441              CONDUIT     77.45     0  03:01      1.78    1.98    1.00
  WSL2442              CONDUIT     61.99     0  02:50      1.86    1.59    1.00
  WSL2443              CONDUIT     61.90     0  02:50      1.86    0.97    1.00
  WSL2444              CONDUIT     61.78     0  02:50      1.86    0.98    1.00
  WSL2446              CONDUIT     56.82     0  02:50      1.81    0.97    1.00
  WSL2447              CONDUIT     56.69     0  02:50      1.71    2.92    1.00
  WSL2448              CONDUIT     56.56     0  02:50      1.70    1.59    1.00
  WSL2449              CONDUIT     35.69     0  03:26      1.12    1.25    1.00
  WSL2450              CONDUIT     35.52     0  03:26      1.13    0.74    1.00
  WSL2451              CONDUIT     35.36     0  03:26      1.10    2.31    1.00
  WSL2452              CONDUIT     35.26     0  03:26      1.14    0.67    1.00
  WSL2454              CONDUIT     34.97     0  03:24      1.34    0.82    1.00
  WSL2478              CONDUIT     35.70     0  02:46      1.33    1.26    1.00
  WSL2479              CONDUIT     32.95     0  02:46      1.24    0.63    1.00
  WSL2480              CONDUIT     48.95     0  03:01      1.47    2.26    1.00
  WSL2482              CONDUIT     48.79     0  03:01      1.47    1.27    1.00
  WSL2484              CONDUIT     45.22     0  03:01      1.41    0.64    1.00
  WSL2493              CONDUIT     62.10     0  02:50      1.43    1.04    1.00
  WSL2867              CONDUIT    144.72     0  03:07      4.33    0.30    0.40
  WSL2868              CONDUIT    133.07     0  03:06      2.28    0.25    0.59
  WSL348               CONDUIT     63.19     0  02:48      1.88    0.58    1.00
  WSL175               CONDUIT     63.60     0  02:48      2.38    2.14    1.00
  WSL1467              CONDUIT    170.81     0  03:07      2.05    0.91    0.83
  WSL1473              CONDUIT    171.98     0  03:05      2.32    0.70    0.84
  XRpipe               CONDUIT     64.15     0  02:48      8.80    0.16    1.00
  8                    CONDUIT     37.94     0  03:01      6.98    0.50    0.50
  19                   CONDUIT      0.00     0  00:00      0.00    0.00    0.00
  17                   CONDUIT      0.00     0  00:00      0.00    0.00    0.00
  4                    CONDUIT      0.00     0  00:00      0.00    0.00    0.00
  2                    CONDUIT    183.56     0  03:03      4.36    0.66    0.60
  XR-Pump-1            PUMP         8.12     0  00:01              1.00
  XR-Pump-3            PUMP         8.12     0  00:01              1.00
  XR-Pump-2            PUMP         8.12     0  00:01              1.00
  XR-Pump-4            PUMP         8.12     0  00:01              1.00
  CC-Pump-1            PUMP        17.28     0  02:50              1.00
  CC-Pump-2            PUMP        17.28     0  01:40              1.00
  JK-Pump-1            PUMP        17.28     0  02:50              1.00
  JK-Pump-2            PUMP        17.28     0  01:40              1.00
  
  
  ***************************
  Flow Classification Summary
  ***************************
  
  -------------------------------------------------------------------------------------
                      Adjusted    ---------- Fraction of Time in Flow Class ---------- 
                       /Actual         Up    Down  Sub   Sup   Up    Down  Norm  Inlet 
  Conduit               Length    Dry  Dry   Dry   Crit  Crit  Crit  Crit  Ltd   Ctrl  
  -------------------------------------------------------------------------------------
  WSL49                   1.00   0.00  0.00  0.00  0.99  0.01  0.00  0.00  0.00  0.00
  WSL1465                 1.00   0.00  0.00  0.00  1.00  0.00  0.00  0.00  0.07  0.00
  WSL1472                 1.00   0.00  0.00  0.00  1.00  0.00  0.00  0.00  0.00  0.00
  WSL1475                 1.00   0.00  0.00  0.00  0.14  0.86  0.00  0.00  0.01  0.00
  WSL1476                 1.00   0.00  0.00  0.00  1.00  0.00  0.00  0.00  0.98  0.00
  WSL1477                 1.00   0.00  0.00  0.00  0.00  1.00  0.00  0.00  0.40  0.00
  WSL1490                 1.00   0.00  0.00  0.00  1.00  0.00  0.00  0.00  0.01  0.00
  WSL1491                 1.00   0.00  0.00  0.00  1.00  0.00  0.00  0.00  0.08  0.00
  WSL1492                 1.00   0.00  0.00  0.00  1.00  0.00  0.00  0.00  0.01  0.00
  WSL1507                 1.00   0.00  0.00  0.00  1.00  0.00  0.00  0.00  0.45  0.00
  WSL1508                 1.00   0.00  0.00  0.00  1.00  0.00  0.00  0.00  0.00  0.00
  WSL1512                 1.00   0.00  0.00  0.00  1.00  0.00  0.00  0.00  0.88  0.00
  WSL1513                 1.00   0.00  0.00  0.00  1.00  0.00  0.00  0.00  0.00  0.00
  WSL1515                 1.00   0.00  0.00  0.00  0.17  0.83  0.00  0.00  0.04  0.00
  WSL1516                 1.00   0.00  0.00  0.00  0.00  1.00  0.00  0.00  0.97  0.00
  WSL1518                 1.00   0.00  0.00  0.00  1.00  0.00  0.00  0.00  0.40  0.00
  WSL1519                 1.00   0.00  0.00  0.00  1.00  0.00  0.00  0.00  0.32  0.00
  WSL1521                 1.00   0.00  0.00  0.00  1.00  0.00  0.00  0.00  0.02  0.00
  WSL1543                 1.00   0.00  0.00  0.00  1.00  0.00  0.00  0.00  0.02  0.00
  WSL1961                 1.00   0.00  0.00  0.00  0.13  0.87  0.00  0.00  0.99  0.00
  WSL1964                 1.00   0.00  0.00  0.00  1.00  0.00  0.00  0.00  0.10  0.00
  WSL2010                 1.00   0.00  0.00  0.00  1.00  0.00  0.00  0.00  0.01  0.00
  WSL2011                 1.00   0.00  0.00  0.00  1.00  0.00  0.00  0.00  0.18  0.00
  WSL2012                 1.00   0.00  0.00  0.00  1.00  0.00  0.00  0.00  0.01  0.00
  WSL2013                 1.00   0.00  0.00  0.00  1.00  0.00  0.00  0.00  0.00  0.00
  WSL2014                 1.00   0.00  0.00  0.00  1.00  0.00  0.00  0.00  0.00  0.00
  WSL2015                 1.00   0.00  0.00  0.00  1.00  0.00  0.00  0.00  0.02  0.00
  WSL2016                 1.00   0.00  0.00  0.00  1.00  0.00  0.00  0.00  0.04  0.00
  WSL2017                 1.00   0.00  0.00  0.00  1.00  0.00  0.00  0.00  0.04  0.00
  WSL2018                 1.00   0.00  0.00  0.00  0.09  0.91  0.00  0.00  0.08  0.00
  WSL2019                 1.00   0.00  0.00  0.00  0.70  0.30  0.00  0.00  0.11  0.00
  WSL2028                 1.00   0.00  0.00  0.00  1.00  0.00  0.00  0.00  0.06  0.00
  WSL2029                 1.00   0.00  0.00  0.00  0.81  0.19  0.00  0.00  0.00  0.00
  WSL2038                 1.00   0.00  0.00  0.00  1.00  0.00  0.00  0.00  0.02  0.00
  WSL2039                 1.00   0.00  0.00  0.00  0.93  0.07  0.00  0.00  0.01  0.00
  WSL2041                 1.00   0.00  0.00  0.00  1.00  0.00  0.00  0.00  0.18  0.00
  WSL2294                 1.00   0.00  0.00  0.00  1.00  0.00  0.00  0.00  0.00  0.00
  WSL2295                 1.00   0.00  0.00  0.00  1.00  0.00  0.00  0.00  0.00  0.00
  WSL2296                 1.00   0.00  0.00  0.00  0.64  0.36  0.00  0.00  0.55  0.00
  WSL2297                 1.00   0.00  0.00  0.00  1.00  0.00  0.00  0.00  0.00  0.00
  WSL2298                 1.00   0.00  0.00  0.00  0.04  0.96  0.00  0.00  0.00  0.00
  WSL2301                 1.00   0.00  0.00  0.00  1.00  0.00  0.00  0.00  0.09  0.00
  WSL2302                 1.00   0.00  0.00  0.00  1.00  0.00  0.00  0.00  0.03  0.00
  WSL2441                 1.00   0.00  0.00  0.00  1.00  0.00  0.00  0.00  0.01  0.00
  WSL2442                 1.00   0.00  0.00  0.00  1.00  0.00  0.00  0.00  0.11  0.00
  WSL2443                 1.00   0.00  0.00  0.00  1.00  0.00  0.00  0.00  0.37  0.00
  WSL2444                 1.00   0.00  0.00  0.00  0.61  0.39  0.00  0.00  0.27  0.00
  WSL2446                 1.00   0.00  0.00  0.00  0.68  0.32  0.00  0.00  0.20  0.00
  WSL2447                 1.00   0.00  0.00  0.00  1.00  0.00  0.00  0.00  0.00  0.00
  WSL2448                 1.00   0.00  0.00  0.00  1.00  0.00  0.00  0.00  0.01  0.00
  WSL2449                 1.00   0.00  0.00  0.00  1.00  0.00  0.00  0.00  0.05  0.00
  WSL2450                 1.00   0.00  0.00  0.00  1.00  0.00  0.00  0.00  0.33  0.00
  WSL2451                 1.00   0.00  0.00  0.00  1.00  0.00  0.00  0.00  0.00  0.00
  WSL2452                 1.00   0.00  0.00  0.00  1.00  0.00  0.00  0.00  0.46  0.00
  WSL2454                 1.00   0.00  0.00  0.00  1.00  0.00  0.00  0.00  0.05  0.00
  WSL2478                 1.00   0.00  0.00  0.00  1.00  0.00  0.00  0.00  0.00  0.00
  WSL2479                 1.00   0.00  0.00  0.00  1.00  0.00  0.00  0.00  0.34  0.00
  WSL2480                 1.00   0.00  0.00  0.00  1.00  0.00  0.00  0.00  0.00  0.00
  WSL2482                 1.00   0.00  0.00  0.00  1.00  0.00  0.00  0.00  0.44  0.00
  WSL2484                 1.00   0.00  0.00  0.00  0.99  0.01  0.00  0.00  0.51  0.00
  WSL2493                 1.00   0.00  0.00  0.00  1.00  0.00  0.00  0.00  0.05  0.00
  WSL2867                 1.00   0.00  0.00  0.00  0.00  1.00  0.00  0.00  0.20  0.00
  WSL2868                 1.00   0.00  0.00  0.00  0.95  0.05  0.00  0.00  0.69  0.00
  WSL348                  1.00   0.00  0.00  0.00  0.98  0.02  0.00  0.00  0.01  0.00
  WSL175                  1.00   0.00  0.00  0.00  0.93  0.07  0.00  0.00  0.01  0.00
  WSL1467                 1.00   0.00  0.00  0.00  1.00  0.00  0.00  0.00  0.13  0.00
  WSL1473                 1.00   0.00  0.00  0.00  1.00  0.00  0.00  0.00  0.04  0.00
  XRpipe                  1.00   0.00  0.00  0.00  0.94  0.06  0.00  0.00  0.04  0.00
  8                       1.00   0.53  0.00  0.00  0.00  0.47  0.00  0.00  0.07  0.00
  19                      1.00   1.00  0.00  0.00  0.00  0.00  0.00  0.00  0.00  0.00
  17                      1.00   1.00  0.00  0.00  0.00  0.00  0.00  0.00  0.00  0.00
  4                       1.00   1.00  0.00  0.00  0.00  0.00  0.00  0.00  0.00  0.00
  2                       1.00   0.00  0.00  0.00  0.00  1.00  0.00  0.00  0.30  0.00
  
  
  *************************
  Conduit Surcharge Summary
  *************************
  
  ----------------------------------------------------------------------------
                                                           Hours        Hours 
                         --------- Hours Full --------   Above Full   Capacity
  Conduit                Both Ends  Upstream  Dnstream   Normal Flow   Limited
  ----------------------------------------------------------------------------
  WSL49                       0.01      0.01      0.01      1.72         0.01
  WSL1472                     0.01      0.01      0.01      1.10         0.01
  WSL1475                     0.01      0.01      0.01      1.15         0.01
  WSL1476                     0.01      0.01      0.52      0.01         0.01
  WSL1515                     0.01      0.01      0.01      0.39         0.01
  WSL2010                     0.01      0.01      0.01      0.44         0.01
  WSL2012                     0.01      0.01      0.01      0.76         0.01
  WSL2013                     0.01      0.01      0.01      1.07         0.01
  WSL2014                     0.01      0.01      0.01      0.93         0.01
  WSL2015                     0.01      0.01      0.01      0.79         0.01
  WSL2016                     0.01      0.01      0.01      0.60         0.01
  WSL2017                     0.01      0.01      0.01      0.71         0.01
  WSL2029                     0.01      0.01      0.01      0.79         0.01
  WSL2038                     0.45      0.45      0.46      0.01         0.01
  WSL2039                     0.49      0.49      0.50      0.01         0.01
  WSL2041                     0.46      0.46      0.49      0.01         0.01
  WSL2294                     0.07      0.50      0.07      1.26         0.07
  WSL2295                     0.01      0.07      0.01      1.75         0.01
  WSL2296                     0.01      0.01      0.43      0.01         0.01
  WSL2297                     0.01      0.01      0.01      0.94         0.01
  WSL2298                     0.01      0.01      0.01      1.97         0.01
  WSL2302                     0.01      0.01      0.01      0.31         0.01
  WSL2441                     0.50      0.66      0.50      1.01         0.50
  WSL2442                     0.85      0.87      0.85      0.93         0.85
  WSL2443                     0.79      0.79      0.87      0.01         0.01
  WSL2444                     0.73      0.73      0.79      0.01         0.01
  WSL2446                     0.65      0.65      0.73      0.01         0.01
  WSL2447                     0.65      0.71      0.65      1.59         0.65
  WSL2448                     0.71      0.71      0.71      0.92         0.71
  WSL2449                     0.71      0.72      0.71      0.30         0.23
  WSL2450                     0.69      0.69      0.72      0.01         0.01
  WSL2451                     0.69      0.71      0.69      1.21         0.67
  WSL2452                     0.65      0.65      0.71      0.01         0.01
  WSL2454                     0.61      0.62      0.65      0.01         0.01
  WSL2478                     0.61      0.63      0.62      0.31         0.15
  WSL2479                     0.51      0.51      0.63      0.01         0.01
  WSL2480                     0.51      0.55      0.51      0.84         0.51
  WSL2482                     0.52      0.52      0.55      0.48         0.47
  WSL2484                     0.41      0.41      0.52      0.01         0.01
  WSL2493                     0.62      0.62      0.66      0.38         0.39
  WSL348                      3.03      3.03      3.07      0.01         0.01
  WSL175                      3.06      3.07      3.07      2.63         2.71
  XRpipe                      3.07      3.07      3.45      0.01         0.01
  
  
  ***************
  Pumping Summary
  ***************
  
  ---------------------------------------------------------------------------------------------------------
                                                  Min       Avg       Max     Total     Power    % Time Off
                        Percent   Number of      Flow      Flow      Flow    Volume     Usage    Pump Curve
  Pump                 Utilized   Start-Ups       MLD       MLD       MLD  10^6 ltr     Kw-hr    Low   High
  ---------------------------------------------------------------------------------------------------------
  XR-Pump-1               95.78           3      0.00      7.83      8.12     1.178      7.22    0.0    0.0
  XR-Pump-3               87.44           3      0.00      7.79      8.12     1.065      6.12    0.0    0.0
  XR-Pump-2               91.62           3      0.00      7.82      8.12     1.121      7.05    0.0    0.0
  XR-Pump-4               95.78           3      0.00      7.83      8.12     1.178      7.22    0.0    0.0
  CC-Pump-1               20.82           1      0.00     15.28     17.28     0.472      4.95    0.0    0.0
  CC-Pump-2               58.28           3      0.00     13.64     17.28     1.007     10.03    0.0    0.0
  JK-Pump-1               16.66           1      0.00     14.19     17.28     0.360      3.74    0.0    0.0
  JK-Pump-2               54.13           3      0.00     13.73     17.28     0.951      9.51    0.0    0.0
  
  
  ***************************
  Link Pollutant Load Summary
  ***************************
  
  ------------------------------------------------------------------------------------------
                                 COD         NH3-N            TN            TP            SS
  Link                            kg            kg            kg            kg            kg
  ------------------------------------------------------------------------------------------
  WSL49                     2156.922         0.000         0.000         0.000         0.000
  WSL1465                    710.585         0.000         0.000         0.000         0.000
  WSL1472                   1950.827         0.000         0.000         0.000         0.000
  WSL1475                   2174.213         0.000         0.000         0.000         0.000
  WSL1476                    208.292         0.000         0.000         0.000         0.000
  WSL1477                    206.411         0.000         0.000         0.000         0.000
  WSL1490                    699.735         0.000         0.000         0.000         0.000
  WSL1491                    703.356         0.000         0.000         0.000         0.000
  WSL1492                    708.042         0.000         0.000         0.000         0.000
  WSL1507                      1.380         0.000         0.000         0.000         0.000
  WSL1508                    131.848         0.000         0.000         0.000         0.000
  WSL1512                    131.826         0.000         0.000         0.000         0.000
  WSL1513                    132.796         0.000         0.000         0.000         0.000
  WSL1515                   1237.759         0.000         0.000         0.000         0.000
  WSL1516                    207.086         0.000         0.000         0.000         0.000
  WSL1518                    205.069         0.000         0.000         0.000         0.000
  WSL1519                    205.092         0.000         0.000         0.000         0.000
  WSL1521                    205.810         0.000         0.000         0.000         0.000
  WSL1543                    204.940         0.000         0.000         0.000         0.000
  WSL1961                    689.248         0.000         0.000         0.000         0.000
  WSL1964                    696.500         0.000         0.000         0.000         0.000
  WSL2010                    755.508         0.000         0.000         0.000         0.000
  WSL2011                    759.735         0.000         0.000         0.000         0.000
  WSL2012                    764.256         0.000         0.000         0.000         0.000
  WSL2013                    814.563         0.000         0.000         0.000         0.000
  WSL2014                   1033.833         0.000         0.000         0.000         0.000
  WSL2015                   1033.596         0.000         0.000         0.000         0.000
  WSL2016                   1144.965         0.000         0.000         0.000         0.000
  WSL2017                   1146.051         0.000         0.000         0.000         0.000
  WSL2018                   1232.009         0.000         0.000         0.000         0.000
  WSL2019                   1232.968         0.000         0.000         0.000         0.000
  WSL2028                    751.714         0.000         0.000         0.000         0.000
  WSL2029                   1150.080         0.000         0.000         0.000         0.000
  WSL2038                     85.617         0.000         0.000         0.000         0.000
  WSL2039                     92.907         0.000         0.000         0.000         0.000
  WSL2041                     89.947         0.000         0.000         0.000         0.000
  WSL2294                    737.187         0.000         0.000         0.000         0.000
  WSL2295                    737.125         0.000         0.000         0.000         0.000
  WSL2296                    745.219         0.000         0.000         0.000         0.000
  WSL2297                    747.897         0.000         0.000         0.000         0.000
  WSL2298                    739.996         0.000         0.000         0.000         0.000
  WSL2301                    748.073         0.000         0.000         0.000         0.000
  WSL2302                    752.137         0.000         0.000         0.000         0.000
  WSL2441                    737.331         0.000         0.000         0.000         0.000
  WSL2442                    452.359         0.000         0.000         0.000         0.000
  WSL2443                    451.963         0.000         0.000         0.000         0.000
  WSL2444                    449.194         0.000         0.000         0.000         0.000
  WSL2446                    447.622         0.000         0.000         0.000         0.000
  WSL2447                    444.423         0.000         0.000         0.000         0.000
  WSL2448                    440.786         0.000         0.000         0.000         0.000
  WSL2449                    266.324         0.000         0.000         0.000         0.000
  WSL2450                    264.186         0.000         0.000         0.000         0.000
  WSL2451                    263.394         0.000         0.000         0.000         0.000
  WSL2452                    262.191         0.000         0.000         0.000         0.000
  WSL2454                    258.426         0.000         0.000         0.000         0.000
  WSL2478                    256.907         0.000         0.000         0.000         0.000
  WSL2479                    192.530         0.000         0.000         0.000         0.000
  WSL2480                    329.034         0.000         0.000         0.000         0.000
  WSL2482                    325.308         0.000         0.000         0.000         0.000
  WSL2484                    281.377         0.000         0.000         0.000         0.000
  WSL2493                    454.518         0.000         0.000         0.000         0.000
  WSL2867                   1237.704         0.000         0.000         0.000         0.000
  WSL2868                   1241.448         0.000         0.000         0.000         0.000
  WSL348                    1265.186         0.000         0.000         0.000         0.000
  WSL175                    1271.163         0.000         0.000         0.000         0.000
  WSL1467                   1948.912         0.000         0.000         0.000         0.000
  WSL1473                   1952.310         0.000         0.000         0.000         0.000
  XRpipe                    1283.314         0.000         0.000         0.000         0.000
  8                          139.526         0.000         0.000         0.000         0.000
  19                           0.000         0.000         0.000         0.000         0.000
  17                           0.000         0.000         0.000         0.000         0.000
  4                            0.000         0.000         0.000         0.000         0.000
  2                         2183.887         0.000         0.000         0.000         0.000
  XR-Pump-1                  175.388         0.000         0.000         0.000         0.000
  XR-Pump-3                  161.708         0.000         0.000         0.000         0.000
  XR-Pump-2                  165.974         0.000         0.000         0.000         0.000
  XR-Pump-4                  175.388         0.000         0.000         0.000         0.000
  CC-Pump-1                   70.053         0.000         0.000         0.000         0.000
  CC-Pump-2                  117.901         0.000         0.000         0.000         0.000
  JK-Pump-1                   65.541         0.000         0.000         0.000         0.000
  JK-Pump-2                  106.009         0.000         0.000         0.000         0.000
  

  Analysis begun on:  Mon Mar 18 14:38:53 2019
  Analysis ended on:  Mon Mar 18 14:38:54 2019
  Total elapsed time: 00:00:01