
  EPA STORM WATER MANAGEMENT MODEL - VERSION 5.1 (Build 5.2.0.dev1)
  --------------------------------------------------------------

  
  *********************************************************
  NOTE: The summary statistics displayed in this report are
  based on results found at every computational time step,  
  not just on results from each reporting time step.
  *********************************************************
  
  ****************
  Analysis Options
  ****************
  Flow Units ............... MLD
  Process Models:
    Rainfall/Runoff ........ YES
    RDII ................... NO
    Snowmelt ............... NO
    Groundwater ............ NO
    Flow Routing ........... YES
    Ponding Allowed ........ NO
    Water Quality .......... YES
  Infiltration Method ...... GREEN_AMPT
  Flow Routing Method ...... DYNWAVE
  Starting Date ............ 08/28/2015 08:00:00
  Ending Date .............. 08/28/2015 12:00:00
  Antecedent Dry Days ...... 4.0
  Report Time Step ......... 00:01:00
  Wet Time Step ............ 00:01:00
  Dry Time Step ............ 00:01:00
  Routing Time Step ........ 5.00 sec
  Variable Time Step ....... YES
  Maximum Trials ........... 8
  Number of Threads ........ 1
  Head Tolerance ........... 0.001500 m
  
  
  **************************        Volume         Depth
  Runoff Quantity Continuity     hectare-m            mm
  **************************     ---------       -------
  Total Precipitation ......         5.657        20.056
  Evaporation Loss .........         0.000         0.000
  Infiltration Loss ........         2.418         8.572
  Surface Runoff ...........         1.514         5.367
  Final Storage ............         1.729         6.129
  Continuity Error (%) .....        -0.055
  
  
  **************************           COD         NH3-N            TN            TP            SS
  Runoff Quality Continuity             kg            kg            kg            kg            kg
  **************************    ----------    ----------    ----------    ----------    ----------
  Initial Buildup ..........     13074.240         0.000         0.000         0.000         0.000
  Surface Buildup ..........       105.712         0.000         0.000         0.000         0.000
  Wet Deposition ...........         0.000         0.000         0.000         0.000         0.000
  Sweeping Removal .........         0.000         0.000         0.000         0.000         0.000
  Infiltration Loss ........       189.089         0.000         0.000         0.000         0.000
  BMP Removal ..............         0.000         0.000         0.000         0.000         0.000
  Surface Runoff ...........      2610.016         0.000         0.000         0.000         0.000
  Remaining Buildup ........     10378.296         0.000         0.000         0.000         0.000
  Continuity Error (%) .....         0.019         0.000         0.000         0.000         0.000
  
  
  **************************        Volume        Volume
  Flow Routing Continuity        hectare-m      10^6 ltr
  **************************     ---------     ---------
  Dry Weather Inflow .......         0.000         0.000
  Wet Weather Inflow .......         1.510        15.096
  Groundwater Inflow .......         0.000         0.000
  RDII Inflow ..............         0.000         0.000
  External Inflow ..........         0.561         5.611
  External Outflow .........         1.190        11.904
  Flooding Loss ............         0.823         8.234
  Evaporation Loss .........         0.000         0.000
  Exfiltration Loss ........         0.000         0.000
  Initial Stored Volume ....         0.000         0.000
  Final Stored Volume ......         0.106         1.061
  Continuity Error (%) .....        -2.381
  
  
  **************************           COD         NH3-N            TN            TP            SS
  Quality Routing Continuity            kg            kg            kg            kg            kg
  **************************    ----------    ----------    ----------    ----------    ----------
  Dry Weather Inflow .......         0.000         0.000         0.000         0.000         0.000
  Wet Weather Inflow .......      2604.949         0.000         0.000         0.000         0.000
  Groundwater Inflow .......         0.000         0.000         0.000         0.000         0.000
  RDII Inflow ..............         0.000         0.000         0.000         0.000         0.000
  External Inflow ..........       937.010         0.000         0.000         0.000         0.000
  External Outflow .........      1825.807         0.000         0.000         0.000         0.000
  Flooding Loss ............      1373.575         0.000         0.000         0.000         0.000
  Exfiltration Loss ........         0.000         0.000         0.000         0.000         0.000
  Mass Reacted .............         0.000         0.000         0.000         0.000         0.000
  Initial Stored Mass ......         0.000         0.000         0.000         0.000         0.000
  Final Stored Mass ........       141.488         0.000         0.000         0.000         0.000
  Continuity Error (%) .....         5.677         0.000         0.000         0.000         0.000
  
  
  *************************
  Highest Continuity Errors
  *************************
  Node WS02003099 (1.15%)
  
  
  ***************************
  Time-Step Critical Elements
  ***************************
  Link 8 (37.63%)
  Link WSL2448 (30.82%)
  Link WSL1477 (19.53%)
  Link XRpipe (5.77%)
  Link WSL2867 (1.04%)
  
  
  ********************************
  Highest Flow Instability Indexes
  ********************************
  Link WSL1477 (66)
  Link WSL1516 (57)
  Link WSL1476 (22)
  Link WSL1515 (19)
  Link WSL1521 (17)
  
  
  *************************
  Routing Time Step Summary
  *************************
  Minimum Time Step           :     0.44 sec
  Average Time Step           :     1.82 sec
  Maximum Time Step           :     5.00 sec
  Percent in Steady State     :    -0.00
  Average Iterations per Step :     2.65
  Percent Not Converging      :     7.25
  
  
  ***************************
  Subcatchment Runoff Summary
  ***************************
  
  --------------------------------------------------------------------------------------------------------
                            Total      Total      Total      Total      Total       Total     Peak  Runoff
                           Precip      Runon       Evap      Infil     Runoff      Runoff   Runoff   Coeff
  Subcatchment                 mm         mm         mm         mm         mm    10^6 ltr      MLD
  --------------------------------------------------------------------------------------------------------
  1                         20.06      24.38       0.00      10.10      21.72        0.26     4.88   0.489
  2                         20.06       0.00       0.00       8.10       6.92        0.23     4.76   0.345
  3                         20.06       0.00       0.00       8.15       6.55        0.33     6.74   0.326
  4                         20.06       0.00       0.00       8.06       7.15        0.19     3.91   0.357
  5                         20.06      17.04       0.00       9.80      16.94        0.29     5.56   0.457
  6                         20.06       0.00       0.00       8.14       6.57        0.32     6.56   0.328
  7                         20.06       0.00       0.00       8.62       5.77        9.24   162.87   0.288
  8                         20.06       0.00       0.00       8.13       6.71        0.28     5.77   0.335
  9                         20.06       6.63       0.00       8.94       9.76        0.37     7.24   0.366
  17                        20.06       0.00       0.00       8.11       6.84        0.25     5.12   0.341
  18                        20.06       0.00       0.00       8.13       6.69        0.29     5.88   0.334
  28                        20.06      22.45       0.00      10.24      18.14        0.48     8.72   0.427
  29                        20.06       9.51       0.00       9.02      11.56        0.28     5.37   0.391
  30                        20.06      26.18       0.00      10.31      24.76        0.23     4.44   0.536
  31                        20.06       0.00       0.00       8.10       6.87        0.24     4.98   0.343
  33                        20.06       0.00       0.00       7.86       8.36        0.07     1.56   0.417
  34                        20.06      14.87       0.00       9.67      15.20        0.31     6.10   0.435
  35                        20.06       0.00       0.00       8.08       7.02        0.21     4.36   0.350
  36                        20.06      13.92       0.00       9.77      12.23        0.72    13.53   0.360
  39                        20.06       0.00       0.00       8.10       6.91        0.24     4.81   0.345
  40                        20.06       3.70       0.00       8.59       8.38        0.33     6.53   0.353
  41                        20.06       0.00       0.00       8.01       7.47        0.14     3.01   0.372
  42                        20.06       0.00       0.00       8.04       7.31        0.17     3.44   0.364
  43                        20.06       0.00       0.00       7.65       9.43        0.03     0.75   0.470
  44                        20.06     203.26       0.00      15.74     175.79        0.65    11.62   0.787
  45                        20.06       0.00       0.00       7.90       8.16        0.08     1.79   0.407
  46                        20.06      11.74       0.00       9.33      13.24        0.28     5.53   0.417
  47                        20.06       0.00       0.00       7.91       8.08        0.09     1.90   0.403
  48                        20.06       5.66       0.00       8.64      10.62        0.17     3.41   0.413
  55                        20.06       8.48       0.00       8.76      13.41        0.11     2.29   0.470
  56                        20.06      12.89       0.00       9.43      13.85        0.30     5.74   0.420
  57                        20.06       0.00       0.00       8.15       6.56        0.33     6.63   0.327
  59                        20.06       0.00       0.00       7.85       8.40        0.07     1.51   0.419
  60                        20.06      18.40       0.00       9.44      21.19        0.11     2.23   0.551
  61                        20.06       0.00       0.00       8.26       5.55        1.00    19.56   0.277
  62                        20.06       0.00       0.00       8.27       5.51        1.05    20.47   0.275
  64                        20.06       0.00       0.00       7.93       7.99        0.10     2.03   0.398
  
  
  ****************************
  Subcatchment Washoff Summary
  ****************************
  
  ------------------------------------------------------------------------------------------
                                 COD         NH3-N            TN            TP            SS
  Subcatchment                    kg            kg            kg            kg            kg
  ------------------------------------------------------------------------------------------
  1                           43.673         0.000         0.000         0.000         0.000
  2                            0.000         0.000         0.000         0.000         0.000
  3                            0.000         0.000         0.000         0.000         0.000
  4                           33.750         0.000         0.000         0.000         0.000
  5                           86.225         0.000         0.000         0.000         0.000
  6                           54.507         0.000         0.000         0.000         0.000
  7                         1478.111         0.000         0.000         0.000         0.000
  8                           48.409         0.000         0.000         0.000         0.000
  9                           91.475         0.000         0.000         0.000         0.000
  17                          43.284         0.000         0.000         0.000         0.000
  18                          49.293         0.000         0.000         0.000         0.000
  28                         176.859         0.000         0.000         0.000         0.000
  29                          85.589         0.000         0.000         0.000         0.000
  30                          64.737         0.000         0.000         0.000         0.000
  31                          42.184         0.000         0.000         0.000         0.000
  33                          14.287         0.000         0.000         0.000         0.000
  34                          94.762         0.000         0.000         0.000         0.000
  35                          37.320         0.000         0.000         0.000         0.000
  36                         225.924         0.000         0.000         0.000         0.000
  39                          40.890         0.000         0.000         0.000         0.000
  40                          71.881         0.000         0.000         0.000         0.000
  41                          26.463         0.000         0.000         0.000         0.000
  42                          29.969         0.000         0.000         0.000         0.000
  43                           7.199         0.000         0.000         0.000         0.000
  44                         205.482         0.000         0.000         0.000         0.000
  45                          16.269         0.000         0.000         0.000         0.000
  46                          87.199         0.000         0.000         0.000         0.000
  47                          17.231         0.000         0.000         0.000         0.000
  48                          42.885         0.000         0.000         0.000         0.000
  55                          31.741         0.000         0.000         0.000         0.000
  56                          92.685         0.000         0.000         0.000         0.000
  57                          55.021         0.000         0.000         0.000         0.000
  59                          13.906         0.000         0.000         0.000         0.000
  60                          32.531         0.000         0.000         0.000         0.000
  61                         149.192         0.000         0.000         0.000         0.000
  62                         155.571         0.000         0.000         0.000         0.000
  64                          18.295         0.000         0.000         0.000         0.000
  ------------------------------------------------------------------------------------------
  System                    3764.798         0.000         0.000         0.000         0.000
  
  
  ******************
  Node Depth Summary
  ******************
  
  ---------------------------------------------------------------------------------
                                 Average  Maximum  Maximum  Time of Max    Reported
                                   Depth    Depth      HGL   Occurrence   Max Depth
  Node                 Type       Meters   Meters   Meters  days hr:min      Meters
  ---------------------------------------------------------------------------------
  WS01000070           JUNCTION     0.00     0.00     0.00     0  00:00        0.00
  WS01000323           JUNCTION     0.00     0.00     0.00     0  00:00        0.00
  WS01000533           JUNCTION     0.00     0.00     6.86     0  00:00        0.00
  WS01005172           JUNCTION     0.00     0.00     0.00     0  00:00        0.00
  WS01005181           JUNCTION     0.00     0.00     0.00     0  00:00        0.00
  WS01009841           JUNCTION     0.00     0.00     0.00     0  00:00        0.00
  WS02000078           JUNCTION     0.00     0.00     0.00     0  00:00        0.00
  WS02000112           JUNCTION     0.00     0.00     0.00     0  00:00        0.00
  WS02000136           JUNCTION     0.00     0.00     0.00     0  00:00        0.00
  WS02001211           JUNCTION     0.46     0.58     5.42     0  03:02        0.58
  WS02001212           JUNCTION     0.43     0.61     5.41     0  03:26        0.61
  WS02001213           JUNCTION     0.53     0.72     5.42     0  03:26        0.70
  WS02003059           JUNCTION     0.53     0.75     5.40     0  03:06        0.73
  WS02003060           JUNCTION     0.60     0.85     5.40     0  03:05        0.85
  WS02003066           JUNCTION     0.27     0.44     5.74     0  03:04        0.41
  WS02003067           JUNCTION     0.46     0.74     6.06     0  03:04        0.74
  WS02003071           JUNCTION     0.65     0.92     5.32     0  03:24        0.89
  WS02003072           JUNCTION     0.55     0.84     5.21     0  03:23        0.80
  WS02003073           JUNCTION     0.63     1.00     5.24     0  03:23        0.98
  WS02003076           JUNCTION     0.57     0.89     5.12     0  03:21        0.81
  WS02003077           JUNCTION     0.09     0.23     5.24     0  03:23        0.19
  WS02003078           JUNCTION     0.06     0.09     6.99     0  03:02        0.09
  WS02003079           JUNCTION     0.18     0.27     7.18     0  03:04        0.27
  WS02003093           JUNCTION     0.05     0.11     7.45     0  03:01        0.11
  WS02003094           JUNCTION     0.15     0.22     7.44     0  03:01        0.22
  WS02003098           JUNCTION     0.10     0.16     7.33     0  03:02        0.16
  WS02003099           JUNCTION     0.20     0.30     7.34     0  03:02        0.30
  WS02003102           JUNCTION     0.18     0.28     7.31     0  03:01        0.28
  WS02003103           JUNCTION     0.21     0.30     7.27     0  03:02        0.30
  WS02003104           JUNCTION     0.20     0.29     7.25     0  03:02        0.29
  WS02003106           JUNCTION     0.20     0.29     7.22     0  03:02        0.29
  WS02004050           JUNCTION     0.39     0.55     4.77     0  03:00        0.55
  WS02004053           JUNCTION     0.00     0.00     0.00     0  00:00        0.00
  WS02004136           JUNCTION     0.17     0.21     6.94     0  00:01        0.18
  WS02004139           JUNCTION     0.38     0.47     5.43     0  03:03        0.47
  WS02004401           JUNCTION     0.51     0.80     6.80     0  03:02        0.80
  WS02004402           JUNCTION     0.52     0.82     6.78     0  03:03        0.82
  WS02004403           JUNCTION     0.51     0.81     6.74     0  03:02        0.81
  WS02004404           JUNCTION     0.59     0.89     6.74     0  03:02        0.89
  WS02004405           JUNCTION     0.58     0.88     6.72     0  03:03        0.88
  WS02004406           JUNCTION     0.56     0.84     6.67     0  03:03        0.84
  WS02004407           JUNCTION     0.53     0.79     6.59     0  03:02        0.79
  WS02004409           JUNCTION     0.51     0.76     6.53     0  03:02        0.76
  WS02004410           JUNCTION     0.49     0.73     6.45     0  03:06        0.73
  WS02004411           JUNCTION     0.45     0.68     6.36     0  03:05        0.68
  WS02004412           JUNCTION     0.39     0.60     6.24     0  03:05        0.59
  WS02004413           JUNCTION     0.41     0.64     6.11     0  03:05        0.63
  WS02004997           JUNCTION     5.75     6.69     8.30     0  02:47        6.69
  WS02005192           JUNCTION     0.32     2.22    10.09     0  02:49        0.68
  WS02005193           JUNCTION     0.35     2.65    10.47     0  02:49        0.72
  WS02005196           JUNCTION     0.33     2.02     9.87     0  02:49        0.69
  WS02006109           JUNCTION     0.55     0.84     7.46     0  03:01        0.84
  WS02006110           JUNCTION     0.50     0.74     7.34     0  03:01        0.74
  WS02006111           JUNCTION     0.28     0.44     7.02     0  03:01        0.44
  WS02006112           JUNCTION     0.52     0.81     6.93     0  03:02        0.81
  WS02006113           JUNCTION     0.42     0.61     7.20     0  03:01        0.61
  WS02006115           JUNCTION     0.48     0.77     6.87     0  03:02        0.77
  WS02006116           JUNCTION     0.51     0.80     6.84     0  03:02        0.80
  WS02006183           JUNCTION     0.00     0.00     0.00     0  00:00        0.00
  WS02006228           JUNCTION     0.58     0.92     7.57     0  03:01        0.92
  WS02006229           JUNCTION     0.57     0.92     7.61     0  03:01        0.92
  WS02006230           JUNCTION     0.59     1.01     7.76     0  03:01        1.01
  WS02006231           JUNCTION     0.54     1.00     7.90     0  03:01        1.00
  WS02006232           JUNCTION     0.53     0.99     8.02     0  03:01        0.99
  WS02006234           JUNCTION     0.52     1.02     8.18     0  02:48        0.98
  WS02006235           JUNCTION     0.57     1.12     8.29     0  02:48        1.06
  WS02006238           JUNCTION     0.58     1.13     8.31     0  02:48        1.07
  WS02006239           JUNCTION     0.58     1.10     8.31     0  02:48        1.06
  WS02006242           JUNCTION     0.56     1.13     8.43     0  02:48        1.00
  WS02006240           JUNCTION     0.52     1.08     8.37     0  02:48        0.99
  WS02006243           JUNCTION     0.48     1.06     8.48     0  02:48        0.90
  WS02006245           JUNCTION     0.46     1.13     8.62     0  02:48        0.85
  WS02006247           JUNCTION     0.47     1.09     8.60     0  02:48        0.84
  WS02006248           JUNCTION     0.41     0.78     8.37     0  02:49        0.77
  WS02006249           JUNCTION     0.44     1.09     8.69     0  02:49        0.80
  WS02006251           JUNCTION     0.43     1.78     9.45     0  02:49        0.82
  WS02006253           JUNCTION     0.35     2.34    10.14     0  02:49        0.74
  WS02618401           JUNCTION     0.00     0.00     0.00     0  00:00        0.00
  WS8802               JUNCTION     0.00     0.00     4.38     0  00:00        0.00
  WSA1649              JUNCTION     0.00     0.00     0.00     0  00:00        0.00
  WSF200               JUNCTION     0.27     0.46     5.56     0  03:05        0.44
  XR-Inflow            JUNCTION     5.62     6.55     8.36     0  01:59        6.55
  WS02004114           JUNCTION     5.71     6.66     8.26     0  02:48        6.65
  outfall-2            OUTFALL      0.00     0.00     7.00     0  00:00        0.00
  outfall-5            OUTFALL      0.06     0.17     7.84     0  02:49        0.17
  outfall-14           OUTFALL      0.00     0.00     7.66     0  00:00        0.00
  outfall-16           OUTFALL      0.00     0.00     8.39     0  00:00        0.00
  12                   OUTFALL      0.39     0.54     0.54     0  03:00        0.54
  XR-storage           STORAGE      6.71     7.72     8.22     0  01:23        7.72
  CC-storage           STORAGE      1.37     5.63     8.81     0  02:27        5.63
  JK-storage           STORAGE      1.13     4.80     7.80     0  02:25        4.80
  
  
  *******************
  Node Inflow Summary
  *******************
  
  -------------------------------------------------------------------------------------------------
                                  Maximum  Maximum                  Lateral       Total        Flow
                                  Lateral    Total  Time of Max      Inflow      Inflow     Balance
                                   Inflow   Inflow   Occurrence      Volume      Volume       Error
  Node                 Type           MLD      MLD  days hr:min    10^6 ltr    10^6 ltr     Percent
  -------------------------------------------------------------------------------------------------
  WS01000070           JUNCTION      0.00     0.00     0  00:00           0           0       0.000 ltr
  WS01000323           JUNCTION      0.00     0.00     0  00:00           0           0       0.000 ltr
  WS01000533           JUNCTION      0.00     0.00     0  00:00           0           0       0.000 ltr
  WS01005172           JUNCTION      0.00     0.00     0  00:00           0           0       0.000 ltr
  WS01005181           JUNCTION      0.00     0.00     0  00:00           0           0       0.000 ltr
  WS01009841           JUNCTION      0.00     0.00     0  00:00           0           0       0.000 ltr
  WS02000078           JUNCTION      0.00     0.00     0  00:00           0           0       0.000 ltr
  WS02000112           JUNCTION      0.00     0.00     0  00:00           0           0       0.000 ltr
  WS02000136           JUNCTION      0.00     0.00     0  00:00           0           0       0.000 ltr
  WS02001211           JUNCTION      0.25    36.05     0  03:10      0.0407        4.69       0.552
  WS02001212           JUNCTION      0.21    41.37     0  03:29      0.0346         4.7       0.311
  WS02001213           JUNCTION      0.30    55.50     0  03:27      0.0489        4.74       0.410
  WS02003059           JUNCTION      0.23    44.20     0  03:27      0.0378        4.75       0.525
  WS02003060           JUNCTION      0.16   155.83     0  03:05      0.0252        10.7       0.346
  WS02003066           JUNCTION      0.08   136.76     0  03:05      0.0122        5.91       0.191
  WS02003067           JUNCTION      0.26   107.18     0  03:05      0.0395         5.9       0.112
  WS02003071           JUNCTION      0.35   147.21     0  03:06      0.0538        10.7       0.371
  WS02003072           JUNCTION      0.24   145.02     0  03:06      0.0382        10.7       0.229
  WS02003073           JUNCTION      0.07   161.77     0  02:59     0.00978        11.4       0.206
  WS02003076           JUNCTION      0.72   171.05     0  02:57        0.12        11.5       0.107
  WS02003077           JUNCTION      0.04    13.04     0  03:02      0.0059       0.688       0.128
  WS02003078           JUNCTION      0.03    14.52     0  03:02     0.00419       0.682      -0.035
  WS02003079           JUNCTION      0.04    12.45     0  03:03     0.00561        0.68       0.287
  WS02003093           JUNCTION      0.02     0.06     0  03:00     0.00306     0.00336       1.392
  WS02003094           JUNCTION      7.29     7.29     0  03:01       0.378       0.381       0.897
  WS02003098           JUNCTION      0.02     7.14     0  03:01     0.00293        0.38       0.570
  WS02003099           JUNCTION      0.07     7.05     0  03:02      0.0109       0.389       1.161
  WS02003102           JUNCTION      5.79    12.51     0  03:01       0.288       0.673       0.567
  WS02003103           JUNCTION      0.02    12.39     0  03:01     0.00239       0.672       0.411
  WS02003104           JUNCTION      0.02    12.37     0  03:02     0.00302       0.672       0.350
  WS02003106           JUNCTION      0.05    12.39     0  03:02     0.00727       0.677       0.428
  WS02004050           JUNCTION      0.72   183.07     0  03:22       0.119        11.6       0.545
  WS02004053           JUNCTION      0.00     0.00     0  00:00           0           0       0.000 ltr
  WS02004136           JUNCTION      0.44    32.92     0  01:40      0.0703        4.61       0.066
  WS02004139           JUNCTION      0.38    39.53     0  00:01      0.0619        4.67       0.370
  WS02004401           JUNCTION      0.05    80.47     0  03:02     0.00897        4.42       0.175
  WS02004402           JUNCTION      0.22    80.65     0  03:03      0.0335        4.44       0.163
  WS02004403           JUNCTION      0.23    80.87     0  03:03      0.0349        4.47       0.141
  WS02004404           JUNCTION      0.24    81.13     0  03:03      0.0365         4.5       0.135
  WS02004405           JUNCTION      3.98    84.50     0  03:03       0.201        4.69       0.194
  WS02004406           JUNCTION      8.84    92.83     0  03:03       0.497        5.18       0.273
  WS02004407           JUNCTION      0.11    92.96     0  03:03      0.0171        5.19       0.243
  WS02004409           JUNCTION      5.74    98.28     0  03:03       0.322         5.5       0.205
  WS02004410           JUNCTION      0.15    98.45     0  03:03      0.0226        5.51       0.206
  WS02004411           JUNCTION      0.25    98.73     0  03:03      0.0379        5.53       0.179
  WS02004412           JUNCTION      6.64   104.76     0  03:02       0.339        5.86       0.140
  WS02004413           JUNCTION      0.11   104.86     0  03:02      0.0172        5.87       0.134
  WS02004997           JUNCTION      0.42    63.61     0  02:47      0.0693        7.73       0.536
  WS02005192           JUNCTION      6.72     8.22     0  02:49       0.345       0.346       0.145
  WS02005193           JUNCTION      0.09    14.94     0  02:49      0.0146       0.388       0.218
  WS02005196           JUNCTION      0.12     9.68     0  02:49       0.019       0.369       0.300
  WS02006109           JUNCTION      0.08    73.47     0  03:01      0.0135        3.97       0.240
  WS02006110           JUNCTION      0.08    73.54     0  03:01      0.0132        3.98       0.225
  WS02006111           JUNCTION      0.24    80.41     0  03:01      0.0366        4.36       0.076
  WS02006112           JUNCTION      0.18    80.50     0  03:01      0.0273        4.38       0.194
  WS02006113           JUNCTION      6.88    80.26     0  03:01        0.36        4.33       0.156
  WS02006115           JUNCTION      0.08    80.47     0  03:01      0.0134        4.39       0.189
  WS02006116           JUNCTION      0.24    80.49     0  03:02       0.036        4.41       0.184
  WS02006183           JUNCTION      0.00     0.00     0  00:00           0           0       0.000 ltr
  WS02006228           JUNCTION     11.77    73.39     0  03:01       0.677        3.97       0.174
  WS02006229           JUNCTION      0.13    61.75     0  02:50        0.02         3.3       0.166
  WS02006230           JUNCTION      0.07    61.66     0  02:59      0.0116        3.28       0.156
  WS02006231           JUNCTION      0.13    61.59     0  02:59      0.0205        3.27       0.072
  WS02006232           JUNCTION      4.84    61.47     0  02:59       0.247        3.25       0.077
  WS02006234           JUNCTION      0.14    57.43     0  02:50      0.0216        3.01       0.079
  WS02006235           JUNCTION      0.14    57.30     0  02:50      0.0223        2.99       0.045
  WS02006238           JUNCTION      0.15    57.17     0  02:50      0.0235        2.97       0.082
  WS02006239           JUNCTION      0.11    34.70     0  03:19      0.0174        1.76       0.207
  WS02006242           JUNCTION      0.08    33.28     0  03:19      0.0129        1.74       0.256
  WS02006240           JUNCTION      0.06    33.90     0  03:19     0.00992        1.74       0.167
  WS02006243           JUNCTION      0.17    33.65     0  02:46      0.0269        1.73       0.152
  WS02006245           JUNCTION      0.07    35.01     0  02:47      0.0113         1.7       0.130
  WS02006247           JUNCTION      5.01    36.42     0  02:47       0.287        1.69       0.137
  WS02006248           JUNCTION      0.12    44.77     0  02:49      0.0192        1.81       0.057
  WS02006249           JUNCTION      0.19    44.31     0  02:49      0.0286        1.79       0.102
  WS02006251           JUNCTION      2.34    43.91     0  03:01       0.121        1.76       0.082
  WS02006253           JUNCTION      0.11    41.57     0  03:01      0.0173        1.65       0.033
  WS02618401           JUNCTION      0.00     0.00     0  00:00           0           0       0.000 ltr
  WS8802               JUNCTION      0.00     0.00     0  00:00           0           0       0.000 ltr
  WSA1649              JUNCTION      0.00     0.00     0  00:00           0           0       0.000 ltr
  WSF200               JUNCTION      0.14   116.34     0  03:12      0.0216        5.92      -0.007
  XR-Inflow            JUNCTION    180.43   180.43     0  03:01        12.6        12.6       0.212
  WS02004114           JUNCTION      0.57    64.16     0  02:47      0.0916        7.78       0.346
  outfall-2            OUTFALL       0.00     0.00     0  00:00           0           0       0.000 ltr
  outfall-5            OUTFALL       0.00    28.34     0  02:49           0       0.401       0.000
  outfall-14           OUTFALL       0.00     0.00     0  00:00           0           0       0.000 ltr
  outfall-16           OUTFALL       0.00     0.00     0  00:00           0           0       0.000 ltr
  12                   OUTFALL       0.00   159.02     0  03:00           0        11.5       0.000
  XR-storage           STORAGE       0.00    64.16     0  02:47           0        7.75      -0.740
  CC-storage           STORAGE      21.02    21.02     0  03:01        1.28        1.28     -12.470
  JK-storage           STORAGE      21.37    21.37     0  03:01        1.22        1.22     -14.309
  
  
  **********************
  Node Surcharge Summary
  **********************
  
  Surcharging occurs when water rises above the top of the highest conduit.
  ---------------------------------------------------------------------
                                               Max. Height   Min. Depth
                                   Hours       Above Crown    Below Rim
  Node                 Type      Surcharged         Meters       Meters
  ---------------------------------------------------------------------
  WS01000070           JUNCTION        4.00          0.000        0.000
  WS01000323           JUNCTION        4.00          0.000        0.000
  WS01000533           JUNCTION        4.00          0.000        2.147
  WS01005172           JUNCTION        4.00          0.000        0.000
  WS01005181           JUNCTION        4.00          0.000        0.000
  WS01009841           JUNCTION        4.00          0.000        0.000
  WS02000078           JUNCTION        4.00          0.000        0.000
  WS02000112           JUNCTION        4.00          0.000        0.000
  WS02000136           JUNCTION        4.00          0.000        0.000
  WS02004053           JUNCTION        4.00          0.000        0.000
  WS02004997           JUNCTION        3.07          5.794        0.206
  WS02005192           JUNCTION        0.30          1.616        1.203
  WS02005193           JUNCTION        0.34          2.050        0.567
  WS02005196           JUNCTION        0.32          1.419        1.287
  WS02006109           JUNCTION        0.36          0.040        1.798
  WS02006183           JUNCTION        4.00          0.000        0.000
  WS02006228           JUNCTION        0.49          0.115        2.116
  WS02006229           JUNCTION        0.48          0.118        2.336
  WS02006231           JUNCTION        0.61          0.295        1.248
  WS02006232           JUNCTION        0.55          0.289        1.200
  WS02006234           JUNCTION        0.52          0.322        0.935
  WS02006235           JUNCTION        0.54          0.418        0.876
  WS02006238           JUNCTION        0.55          0.432        1.002
  WS02006239           JUNCTION        0.56          0.403        0.926
  WS02006242           JUNCTION        0.55          0.433        0.416
  WS02006240           JUNCTION        0.53          0.379        1.024
  WS02006243           JUNCTION        0.50          0.362        0.418
  WS02006245           JUNCTION        0.47          0.425        0.430
  WS02006247           JUNCTION        0.47          0.391        0.369
  WS02006249           JUNCTION        0.42          0.388        0.000
  WS02006251           JUNCTION        0.38          1.078        0.432
  WS02006253           JUNCTION        0.26          1.644        0.810
  WS02618401           JUNCTION        4.00          0.000        0.000
  WS8802               JUNCTION        4.00          0.000        4.942
  WSA1649              JUNCTION        4.00          0.000        0.000
  XR-Inflow            JUNCTION        3.04          5.650        0.000
  WS02004114           JUNCTION        3.07          5.758        0.757
  
  
  *********************
  Node Flooding Summary
  *********************
  
  Flooding refers to all water that overflows a node, whether it ponds or not.
  --------------------------------------------------------------------------
                                                             Total   Maximum
                                 Maximum   Time of Max       Flood    Ponded
                        Hours       Rate    Occurrence      Volume     Depth
  Node                 Flooded       MLD   days hr:min    10^6 ltr    Meters
  --------------------------------------------------------------------------
  WS02006249              0.01      3.41      0  02:49       0.000     0.000
  XR-Inflow               1.99    117.26      0  03:01       4.870     0.000
  XR-storage              2.60     34.80      0  01:30       3.207     0.000
  CC-storage              0.19     13.24      0  02:30       0.062     0.000
  JK-storage              0.29     13.17      0  02:30       0.096     0.000
  
  
  **********************
  Storage Volume Summary
  **********************
  
  --------------------------------------------------------------------------------------------------
                         Average     Avg  Evap Exfil       Maximum     Max    Time of Max    Maximum
                          Volume    Pcnt  Pcnt  Pcnt        Volume    Pcnt     Occurrence    Outflow
  Storage Unit           1000 m3    Full  Loss  Loss       1000 m3    Full    days hr:min        MLD
  --------------------------------------------------------------------------------------------------
  XR-storage               0.054      87     0     0         0.063     100       0  01:23      32.48
  CC-storage               0.039      24     0     0         0.159     100       0  02:27      34.56
  JK-storage               0.032      24     0     0         0.136     100       0  02:25      34.56
  
  
  ***********************
  Outfall Loading Summary
  ***********************
  
  ---------------------------------------------------------------------------------------------------------------------------------
                         Flow       Avg       Max       Total         Total         Total         Total         Total         Total
                         Freq      Flow      Flow      Volume           COD         NH3-N            TN            TP            SS
  Outfall Node           Pcnt       MLD       MLD    10^6 ltr            kg            kg            kg            kg            kg
  ---------------------------------------------------------------------------------------------------------------------------------
  outfall-2              0.00      0.00      0.00       0.000         0.000         0.000         0.000         0.000         0.000
  outfall-5             39.06     21.35     28.34       0.401        51.390         0.000         0.000         0.000         0.000
  outfall-14             0.00      0.00      0.00       0.000         0.000         0.000         0.000         0.000         0.000
  outfall-16             0.00      0.00      0.00       0.000         0.000         0.000         0.000         0.000         0.000
  12                    99.99     94.96    159.02      11.503      1774.525         0.000         0.000         0.000         0.000
  ---------------------------------------------------------------------------------------------------------------------------------
  System                27.81    116.31    186.65      11.904      1825.915         0.000         0.000         0.000         0.000
  
  
  ********************
  Link Flow Summary
  ********************
  
  -----------------------------------------------------------------------------
                                 Maximum  Time of Max   Maximum    Max/    Max/
                                  |Flow|   Occurrence   |Veloc|    Full    Full
  Link                 Type          MLD  days hr:min     m/sec    Flow   Depth
  -----------------------------------------------------------------------------
  WSL49                CONDUIT    170.33     0  02:57      2.66    2.12    0.75
  WSL1465              CONDUIT     42.32     0  03:28      1.99    0.39    0.78
  WSL1472              CONDUIT    144.81     0  03:06      2.08    1.65    0.70
  WSL1475              CONDUIT    182.36     0  03:22      3.15    1.95    0.48
  WSL1476              CONDUIT     20.57     0  03:23      0.74    0.10    0.64
  WSL1477              CONDUIT     14.50     0  03:02      2.45    0.57    0.29
  WSL1490              CONDUIT     41.16     0  03:29      1.60    0.67    0.59
  WSL1491              CONDUIT     55.22     0  03:27      1.86    0.32    0.65
  WSL1492              CONDUIT     43.98     0  03:27      1.71    0.68    0.72
  WSL1507              CONDUIT      0.14     0  03:02      0.11    0.00    0.21
  WSL1508              CONDUIT      7.13     0  03:01      0.90    0.20    0.24
  WSL1512              CONDUIT      6.99     0  03:02      0.61    0.05    0.23
  WSL1513              CONDUIT      7.16     0  03:03      0.51    0.42    0.36
  WSL1515              CONDUIT    136.69     0  03:05      3.04    1.33    0.47
  WSL1516              CONDUIT     13.01     0  03:02      4.24    0.05    0.24
  WSL1518              CONDUIT     12.38     0  03:01      0.86    0.24    0.37
  WSL1519              CONDUIT     12.35     0  03:02      0.86    0.31    0.36
  WSL1521              CONDUIT     12.43     0  03:03      0.94    0.36    0.35
  WSL1543              CONDUIT     12.35     0  03:02      0.83    0.39    0.37
  WSL1961              CONDUIT     39.15     0  00:01      3.75    0.08    0.33
  WSL1964              CONDUIT     35.81     0  03:10      1.79    0.19    0.44
  WSL2010              CONDUIT     80.69     0  03:03      1.38    1.03    0.81
  WSL2011              CONDUIT     80.94     0  03:03      1.33    0.52    0.85
  WSL2012              CONDUIT     81.18     0  03:03      1.29    1.24    0.88
  WSL2013              CONDUIT     84.54     0  03:03      1.36    2.10    0.86
  WSL2014              CONDUIT     92.86     0  03:03      1.56    1.48    0.82
  WSL2015              CONDUIT     93.03     0  03:03      1.65    1.25    0.78
  WSL2016              CONDUIT     98.33     0  03:03      1.83    1.13    0.74
  WSL2017              CONDUIT     98.53     0  03:03      1.98    1.20    0.70
  WSL2018              CONDUIT    104.76     0  03:02      2.47    0.62    0.62
  WSL2019              CONDUIT    106.98     0  03:05      2.39    0.63    0.69
  WSL2028              CONDUIT     80.47     0  03:03      1.40    0.86    0.81
  WSL2029              CONDUIT     99.32     0  03:06      2.23    1.26    0.64
  WSL2038              CONDUIT      6.72     0  03:01      0.68    0.33    1.00
  WSL2039              CONDUIT      8.89     0  02:48      1.01    0.46    1.00
  WSL2041              CONDUIT      8.45     0  02:49      0.76    0.41    1.00
  WSL2294              CONDUIT     73.46     0  03:01      1.71    2.47    0.96
  WSL2295              CONDUIT     73.58     0  03:01      1.89    3.31    0.85
  WSL2296              CONDUIT     80.35     0  03:01      2.24    0.45    0.77
  WSL2297              CONDUIT     80.39     0  03:01      1.46    1.54    0.79
  WSL2298              CONDUIT     80.22     0  03:01      2.66    3.69    0.66
  WSL2301              CONDUIT     80.30     0  03:02      1.47    0.74    0.79
  WSL2302              CONDUIT     80.41     0  03:02      1.43    0.99    0.80
  WSL2441              CONDUIT     73.39     0  03:01      1.69    1.88    1.00
  WSL2442              CONDUIT     61.63     0  02:50      1.85    1.58    1.00
  WSL2443              CONDUIT     61.59     0  02:59      1.85    0.96    1.00
  WSL2444              CONDUIT     61.47     0  02:59      1.85    0.98    1.00
  WSL2446              CONDUIT     57.44     0  02:50      1.82    0.99    1.00
  WSL2447              CONDUIT     57.31     0  02:50      1.73    2.95    1.00
  WSL2448              CONDUIT     57.17     0  02:50      1.72    1.61    1.00
  WSL2449              CONDUIT     35.29     0  03:19      1.09    1.23    1.00
  WSL2450              CONDUIT     34.61     0  03:19      1.09    0.72    1.00
  WSL2451              CONDUIT     33.85     0  03:19      1.08    2.21    1.00
  WSL2452              CONDUIT     33.21     0  03:19      1.13    0.63    1.00
  WSL2454              CONDUIT     33.49     0  02:46      1.33    0.78    1.00
  WSL2478              CONDUIT     34.95     0  02:47      1.32    1.23    1.00
  WSL2479              CONDUIT     32.84     0  02:47      1.24    0.62    1.00
  WSL2480              CONDUIT     44.66     0  02:49      1.34    2.07    1.00
  WSL2482              CONDUIT     44.15     0  02:49      1.33    1.15    1.00
  WSL2484              CONDUIT     42.04     0  02:49      1.42    0.59    1.00
  WSL2493              CONDUIT     61.73     0  02:50      1.42    1.04    1.00
  WSL2867              CONDUIT    116.22     0  03:12      4.11    0.24    0.36
  WSL2868              CONDUIT    115.38     0  03:05      2.19    0.22    0.53
  WSL348               CONDUIT     63.20     0  02:47      1.88    0.58    1.00
  WSL175               CONDUIT     63.62     0  02:47      2.39    2.14    1.00
  WSL1467              CONDUIT    146.92     0  03:06      1.99    0.78    0.71
  WSL1473              CONDUIT    149.97     0  02:59      2.22    0.61    0.74
  XRpipe               CONDUIT     64.16     0  02:47      8.80    0.16    1.00
  8                    CONDUIT     28.34     0  02:49      6.47    0.37    0.43
  19                   CONDUIT      0.00     0  00:00      0.00    0.00    0.00
  17                   CONDUIT      0.00     0  00:00      0.00    0.00    0.00
  4                    CONDUIT      0.00     0  00:00      0.00    0.00    0.00
  2                    CONDUIT    159.02     0  03:00      4.22    0.57    0.55
  XR-Pump-1            PUMP         8.12     0  00:01              1.00
  XR-Pump-3            PUMP         8.12     0  00:01              1.00
  XR-Pump-2            PUMP         8.12     0  00:01              1.00
  XR-Pump-4            PUMP         8.12     0  00:01              1.00
  CC-Pump-1            PUMP        17.28     0  02:50              1.00
  CC-Pump-2            PUMP        17.28     0  01:40              1.00
  JK-Pump-1            PUMP        17.28     0  02:50              1.00
  JK-Pump-2            PUMP        17.28     0  01:40              1.00
  
  
  ***************************
  Flow Classification Summary
  ***************************
  
  -------------------------------------------------------------------------------------
                      Adjusted    ---------- Fraction of Time in Flow Class ---------- 
                       /Actual         Up    Down  Sub   Sup   Up    Down  Norm  Inlet 
  Conduit               Length    Dry  Dry   Dry   Crit  Crit  Crit  Crit  Ltd   Ctrl  
  -------------------------------------------------------------------------------------
  WSL49                   1.00   0.00  0.00  0.00  1.00  0.00  0.00  0.00  0.00  0.00
  WSL1465                 1.00   0.00  0.00  0.00  1.00  0.00  0.00  0.00  0.07  0.00
  WSL1472                 1.00   0.00  0.00  0.00  1.00  0.00  0.00  0.00  0.00  0.00
  WSL1475                 1.00   0.00  0.00  0.00  0.15  0.85  0.00  0.00  0.01  0.00
  WSL1476                 1.00   0.00  0.00  0.00  1.00  0.00  0.00  0.00  0.99  0.00
  WSL1477                 1.00   0.00  0.00  0.00  0.00  1.00  0.00  0.00  0.43  0.00
  WSL1490                 1.00   0.00  0.00  0.00  1.00  0.00  0.00  0.00  0.01  0.00
  WSL1491                 1.00   0.00  0.00  0.00  1.00  0.00  0.00  0.00  0.08  0.00
  WSL1492                 1.00   0.00  0.00  0.00  1.00  0.00  0.00  0.00  0.02  0.00
  WSL1507                 1.00   0.00  0.00  0.00  1.00  0.00  0.00  0.00  0.44  0.00
  WSL1508                 1.00   0.00  0.00  0.00  1.00  0.00  0.00  0.00  0.00  0.00
  WSL1512                 1.00   0.00  0.00  0.00  1.00  0.00  0.00  0.00  0.96  0.00
  WSL1513                 1.00   0.00  0.00  0.00  1.00  0.00  0.00  0.00  0.00  0.00
  WSL1515                 1.00   0.00  0.00  0.00  0.13  0.87  0.00  0.00  0.05  0.00
  WSL1516                 1.00   0.00  0.00  0.00  0.00  1.00  0.00  0.00  0.99  0.00
  WSL1518                 1.00   0.00  0.00  0.00  1.00  0.00  0.00  0.00  0.39  0.00
  WSL1519                 1.00   0.00  0.00  0.00  1.00  0.00  0.00  0.00  0.32  0.00
  WSL1521                 1.00   0.00  0.00  0.00  1.00  0.00  0.00  0.00  0.02  0.00
  WSL1543                 1.00   0.00  0.00  0.00  1.00  0.00  0.00  0.00  0.02  0.00
  WSL1961                 1.00   0.00  0.00  0.00  0.02  0.98  0.00  0.00  0.99  0.00
  WSL1964                 1.00   0.00  0.00  0.00  1.00  0.00  0.00  0.00  0.10  0.00
  WSL2010                 1.00   0.00  0.00  0.00  1.00  0.00  0.00  0.00  0.01  0.00
  WSL2011                 1.00   0.00  0.00  0.00  1.00  0.00  0.00  0.00  0.18  0.00
  WSL2012                 1.00   0.00  0.00  0.00  1.00  0.00  0.00  0.00  0.01  0.00
  WSL2013                 1.00   0.00  0.00  0.00  1.00  0.00  0.00  0.00  0.00  0.00
  WSL2014                 1.00   0.00  0.00  0.00  1.00  0.00  0.00  0.00  0.00  0.00
  WSL2015                 1.00   0.00  0.00  0.00  1.00  0.00  0.00  0.00  0.02  0.00
  WSL2016                 1.00   0.00  0.00  0.00  1.00  0.00  0.00  0.00  0.04  0.00
  WSL2017                 1.00   0.00  0.00  0.00  1.00  0.00  0.00  0.00  0.04  0.00
  WSL2018                 1.00   0.00  0.00  0.00  0.01  0.99  0.00  0.00  0.07  0.00
  WSL2019                 1.00   0.00  0.00  0.00  0.55  0.45  0.00  0.00  0.11  0.00
  WSL2028                 1.00   0.00  0.00  0.00  1.00  0.00  0.00  0.00  0.06  0.00
  WSL2029                 1.00   0.00  0.00  0.00  0.74  0.26  0.00  0.00  0.00  0.00
  WSL2038                 1.00   0.00  0.00  0.00  1.00  0.00  0.00  0.00  0.02  0.00
  WSL2039                 1.00   0.00  0.00  0.00  0.93  0.07  0.00  0.00  0.01  0.00
  WSL2041                 1.00   0.00  0.00  0.00  1.00  0.00  0.00  0.00  0.17  0.00
  WSL2294                 1.00   0.00  0.00  0.00  1.00  0.00  0.00  0.00  0.00  0.00
  WSL2295                 1.00   0.00  0.00  0.00  1.00  0.00  0.00  0.00  0.00  0.00
  WSL2296                 1.00   0.00  0.00  0.00  0.55  0.45  0.00  0.00  0.60  0.00
  WSL2297                 1.00   0.00  0.00  0.00  1.00  0.00  0.00  0.00  0.00  0.00
  WSL2298                 1.00   0.00  0.00  0.00  0.04  0.96  0.00  0.00  0.00  0.00
  WSL2301                 1.00   0.00  0.00  0.00  1.00  0.00  0.00  0.00  0.09  0.00
  WSL2302                 1.00   0.00  0.00  0.00  1.00  0.00  0.00  0.00  0.04  0.00
  WSL2441                 1.00   0.00  0.00  0.00  1.00  0.00  0.00  0.00  0.01  0.00
  WSL2442                 1.00   0.00  0.00  0.00  1.00  0.00  0.00  0.00  0.11  0.00
  WSL2443                 1.00   0.00  0.00  0.00  1.00  0.00  0.00  0.00  0.42  0.00
  WSL2444                 1.00   0.00  0.00  0.00  0.54  0.46  0.00  0.00  0.31  0.00
  WSL2446                 1.00   0.00  0.00  0.00  0.61  0.39  0.00  0.00  0.20  0.00
  WSL2447                 1.00   0.00  0.00  0.00  1.00  0.00  0.00  0.00  0.00  0.00
  WSL2448                 1.00   0.00  0.00  0.00  1.00  0.00  0.00  0.00  0.02  0.00
  WSL2449                 1.00   0.00  0.00  0.00  1.00  0.00  0.00  0.00  0.05  0.00
  WSL2450                 1.00   0.00  0.00  0.00  1.00  0.00  0.00  0.00  0.33  0.00
  WSL2451                 1.00   0.00  0.00  0.00  1.00  0.00  0.00  0.00  0.00  0.00
  WSL2452                 1.00   0.00  0.00  0.00  1.00  0.00  0.00  0.00  0.53  0.00
  WSL2454                 1.00   0.00  0.00  0.00  1.00  0.00  0.00  0.00  0.06  0.00
  WSL2478                 1.00   0.00  0.00  0.00  1.00  0.00  0.00  0.00  0.00  0.00
  WSL2479                 1.00   0.00  0.00  0.00  1.00  0.00  0.00  0.00  0.37  0.00
  WSL2480                 1.00   0.00  0.00  0.00  1.00  0.00  0.00  0.00  0.00  0.00
  WSL2482                 1.00   0.00  0.00  0.00  1.00  0.00  0.00  0.00  0.50  0.00
  WSL2484                 1.00   0.00  0.00  0.00  0.99  0.01  0.00  0.00  0.55  0.00
  WSL2493                 1.00   0.00  0.00  0.00  1.00  0.00  0.00  0.00  0.05  0.00
  WSL2867                 1.00   0.00  0.00  0.00  0.00  1.00  0.00  0.00  0.20  0.00
  WSL2868                 1.00   0.00  0.00  0.00  0.93  0.07  0.00  0.00  0.75  0.00
  WSL348                  1.00   0.00  0.00  0.00  0.98  0.02  0.00  0.00  0.01  0.00
  WSL175                  1.00   0.00  0.00  0.00  0.92  0.08  0.00  0.00  0.01  0.00
  WSL1467                 1.00   0.00  0.00  0.00  1.00  0.00  0.00  0.00  0.13  0.00
  WSL1473                 1.00   0.00  0.00  0.00  1.00  0.00  0.00  0.00  0.04  0.00
  XRpipe                  1.00   0.00  0.00  0.00  0.93  0.07  0.00  0.00  0.04  0.00
  8                       1.00   0.61  0.00  0.00  0.00  0.39  0.00  0.00  0.05  0.00
  19                      1.00   1.00  0.00  0.00  0.00  0.00  0.00  0.00  0.00  0.00
  17                      1.00   1.00  0.00  0.00  0.00  0.00  0.00  0.00  0.00  0.00
  4                       1.00   1.00  0.00  0.00  0.00  0.00  0.00  0.00  0.00  0.00
  2                       1.00   0.00  0.00  0.00  0.00  1.00  0.00  0.00  0.31  0.00
  
  
  *************************
  Conduit Surcharge Summary
  *************************
  
  ----------------------------------------------------------------------------
                                                           Hours        Hours 
                         --------- Hours Full --------   Above Full   Capacity
  Conduit                Both Ends  Upstream  Dnstream   Normal Flow   Limited
  ----------------------------------------------------------------------------
  WSL49                       0.01      0.01      0.01      1.54         0.01
  WSL1472                     0.01      0.01      0.01      0.87         0.01
  WSL1475                     0.01      0.01      0.01      0.93         0.01
  WSL1476                     0.01      0.01      0.24      0.01         0.01
  WSL1515                     0.01      0.01      0.01      0.20         0.01
  WSL2010                     0.01      0.01      0.01      0.21         0.01
  WSL2012                     0.01      0.01      0.01      0.57         0.01
  WSL2013                     0.01      0.01      0.01      0.88         0.01
  WSL2014                     0.01      0.01      0.01      0.72         0.01
  WSL2015                     0.01      0.01      0.01      0.55         0.01
  WSL2016                     0.01      0.01      0.01      0.40         0.01
  WSL2017                     0.01      0.01      0.01      0.49         0.01
  WSL2029                     0.01      0.01      0.01      0.54         0.01
  WSL2038                     0.30      0.30      0.32      0.01         0.01
  WSL2039                     0.34      0.34      0.36      0.01         0.01
  WSL2041                     0.32      0.32      0.34      0.01         0.01
  WSL2294                     0.01      0.36      0.01      1.09         0.01
  WSL2295                     0.01      0.01      0.01      1.54         0.01
  WSL2296                     0.01      0.01      0.12      0.01         0.01
  WSL2297                     0.01      0.01      0.01      0.74         0.01
  WSL2298                     0.01      0.01      0.01      1.67         0.01
  WSL2441                     0.36      0.49      0.36      0.82         0.36
  WSL2442                     0.65      0.68      0.65      0.75         0.65
  WSL2443                     0.61      0.61      0.68      0.01         0.01
  WSL2444                     0.55      0.55      0.61      0.01         0.01
  WSL2446                     0.52      0.52      0.55      0.01         0.01
  WSL2447                     0.52      0.54      0.52      1.41         0.52
  WSL2448                     0.54      0.55      0.54      0.76         0.54
  WSL2449                     0.55      0.56      0.55      0.18         0.12
  WSL2450                     0.53      0.53      0.56      0.01         0.01
  WSL2451                     0.53      0.55      0.53      1.04         0.52
  WSL2452                     0.50      0.50      0.55      0.01         0.01
  WSL2454                     0.47      0.47      0.50      0.01         0.01
  WSL2478                     0.47      0.47      0.47      0.19         0.07
  WSL2479                     0.39      0.39      0.47      0.01         0.01
  WSL2480                     0.39      0.42      0.39      0.67         0.39
  WSL2482                     0.38      0.38      0.42      0.31         0.30
  WSL2484                     0.26      0.26      0.38      0.01         0.01
  WSL2493                     0.48      0.48      0.49      0.34         0.34
  WSL348                      3.04      3.04      3.07      0.01         0.01
  WSL175                      3.07      3.07      3.07      2.63         2.72
  XRpipe                      3.07      3.07      3.45      0.01         0.01
  
  
  ***************
  Pumping Summary
  ***************
  
  ---------------------------------------------------------------------------------------------------------
                                                  Min       Avg       Max     Total     Power    % Time Off
                        Percent   Number of      Flow      Flow      Flow    Volume     Usage    Pump Curve
  Pump                 Utilized   Start-Ups       MLD       MLD       MLD  10^6 ltr     Kw-hr    Low   High
  ---------------------------------------------------------------------------------------------------------
  XR-Pump-1               95.81           3      0.00      7.79      8.12     1.178      7.21    0.0    0.0
  XR-Pump-3               87.45           3      0.00      7.75      8.12     1.065      6.12    0.0    0.0
  XR-Pump-2               91.64           3      0.00      7.79      8.12     1.121      7.05    0.0    0.0
  XR-Pump-4               95.81           3      0.00      7.79      8.12     1.178      7.21    0.0    0.0
  CC-Pump-1               16.67           1      0.00     14.70     17.28     0.354      3.96    0.0    0.0
  CC-Pump-2               54.13           3      0.00     12.96     17.28     0.895      9.07    0.0    0.0
  JK-Pump-1               16.67           1      0.00     14.72     17.28     0.355      4.18    0.0    0.0
  JK-Pump-2               49.98           3      0.00     13.06     17.28     0.838      8.48    0.0    0.0
  
  
  ***************************
  Link Pollutant Load Summary
  ***************************
  
  ------------------------------------------------------------------------------------------
                                 COD         NH3-N            TN            TP            SS
  Link                            kg            kg            kg            kg            kg
  ------------------------------------------------------------------------------------------
  WSL49                     1747.154         0.000         0.000         0.000         0.000
  WSL1465                    659.688         0.000         0.000         0.000         0.000
  WSL1472                   1599.960         0.000         0.000         0.000         0.000
  WSL1475                   1765.021         0.000         0.000         0.000         0.000
  WSL1476                    146.948         0.000         0.000         0.000         0.000
  WSL1477                    144.941         0.000         0.000         0.000         0.000
  WSL1490                    647.737         0.000         0.000         0.000         0.000
  WSL1491                    651.640         0.000         0.000         0.000         0.000
  WSL1492                    656.636         0.000         0.000         0.000         0.000
  WSL1507                      0.758         0.000         0.000         0.000         0.000
  WSL1508                     93.125         0.000         0.000         0.000         0.000
  WSL1512                     93.310         0.000         0.000         0.000         0.000
  WSL1513                     94.446         0.000         0.000         0.000         0.000
  WSL1515                    936.345         0.000         0.000         0.000         0.000
  WSL1516                    145.654         0.000         0.000         0.000         0.000
  WSL1518                    143.080         0.000         0.000         0.000         0.000
  WSL1519                    143.368         0.000         0.000         0.000         0.000
  WSL1521                    144.228         0.000         0.000         0.000         0.000
  WSL1543                    143.150         0.000         0.000         0.000         0.000
  WSL1961                    636.776         0.000         0.000         0.000         0.000
  WSL1964                    644.200         0.000         0.000         0.000         0.000
  WSL2010                    558.929         0.000         0.000         0.000         0.000
  WSL2011                    563.395         0.000         0.000         0.000         0.000
  WSL2012                    568.262         0.000         0.000         0.000         0.000
  WSL2013                    602.231         0.000         0.000         0.000         0.000
  WSL2014                    779.370         0.000         0.000         0.000         0.000
  WSL2015                    779.533         0.000         0.000         0.000         0.000
  WSL2016                    869.083         0.000         0.000         0.000         0.000
  WSL2017                    870.475         0.000         0.000         0.000         0.000
  WSL2018                    930.001         0.000         0.000         0.000         0.000
  WSL2019                    931.191         0.000         0.000         0.000         0.000
  WSL2028                    554.780         0.000         0.000         0.000         0.000
  WSL2029                    874.760         0.000         0.000         0.000         0.000
  WSL2038                     58.378         0.000         0.000         0.000         0.000
  WSL2039                     65.981         0.000         0.000         0.000         0.000
  WSL2041                     62.728         0.000         0.000         0.000         0.000
  WSL2294                    538.248         0.000         0.000         0.000         0.000
  WSL2295                    538.507         0.000         0.000         0.000         0.000
  WSL2296                    546.928         0.000         0.000         0.000         0.000
  WSL2297                    549.969         0.000         0.000         0.000         0.000
  WSL2298                    541.581         0.000         0.000         0.000         0.000
  WSL2301                    550.470         0.000         0.000         0.000         0.000
  WSL2302                    554.891         0.000         0.000         0.000         0.000
  WSL2441                    538.022         0.000         0.000         0.000         0.000
  WSL2442                    327.480         0.000         0.000         0.000         0.000
  WSL2443                    326.827         0.000         0.000         0.000         0.000
  WSL2444                    323.958         0.000         0.000         0.000         0.000
  WSL2446                    322.281         0.000         0.000         0.000         0.000
  WSL2447                    319.012         0.000         0.000         0.000         0.000
  WSL2448                    315.331         0.000         0.000         0.000         0.000
  WSL2449                    221.543         0.000         0.000         0.000         0.000
  WSL2450                    219.273         0.000         0.000         0.000         0.000
  WSL2451                    218.329         0.000         0.000         0.000         0.000
  WSL2452                    216.961         0.000         0.000         0.000         0.000
  WSL2454                    213.065         0.000         0.000         0.000         0.000
  WSL2478                    211.463         0.000         0.000         0.000         0.000
  WSL2479                    164.311         0.000         0.000         0.000         0.000
  WSL2480                    212.614         0.000         0.000         0.000         0.000
  WSL2482                    208.737         0.000         0.000         0.000         0.000
  WSL2484                    175.162         0.000         0.000         0.000         0.000
  WSL2493                    329.824         0.000         0.000         0.000         0.000
  WSL2867                    936.390         0.000         0.000         0.000         0.000
  WSL2868                    939.941         0.000         0.000         0.000         0.000
  WSL348                    1164.788         0.000         0.000         0.000         0.000
  WSL175                    1171.041         0.000         0.000         0.000         0.000
  WSL1467                   1597.324         0.000         0.000         0.000         0.000
  WSL1473                   1602.207         0.000         0.000         0.000         0.000
  XRpipe                    1183.357         0.000         0.000         0.000         0.000
  8                           51.390         0.000         0.000         0.000         0.000
  19                           0.000         0.000         0.000         0.000         0.000
  17                           0.000         0.000         0.000         0.000         0.000
  4                            0.000         0.000         0.000         0.000         0.000
  2                         1774.525         0.000         0.000         0.000         0.000
  XR-Pump-1                  162.286         0.000         0.000         0.000         0.000
  XR-Pump-3                  148.587         0.000         0.000         0.000         0.000
  XR-Pump-2                  152.873         0.000         0.000         0.000         0.000
  XR-Pump-4                  162.286         0.000         0.000         0.000         0.000
  CC-Pump-1                   30.822         0.000         0.000         0.000         0.000
  CC-Pump-2                   77.988         0.000         0.000         0.000         0.000
  JK-Pump-1                   25.684         0.000         0.000         0.000         0.000
  JK-Pump-2                   65.110         0.000         0.000         0.000         0.000
  

  Analysis begun on:  Mon Mar 18 14:39:08 2019
  Analysis ended on:  Mon Mar 18 14:39:09 2019
  Total elapsed time: 00:00:01