
  EPA STORM WATER MANAGEMENT MODEL - VERSION 5.1 (Build 5.2.0.dev1)
  --------------------------------------------------------------

  
  *********************************************************
  NOTE: The summary statistics displayed in this report are
  based on results found at every computational time step,  
  not just on results from each reporting time step.
  *********************************************************
  
  ****************
  Analysis Options
  ****************
  Flow Units ............... MLD
  Process Models:
    Rainfall/Runoff ........ YES
    RDII ................... NO
    Snowmelt ............... NO
    Groundwater ............ NO
    Flow Routing ........... YES
    Ponding Allowed ........ NO
    Water Quality .......... YES
  Infiltration Method ...... GREEN_AMPT
  Flow Routing Method ...... DYNWAVE
  Starting Date ............ 08/28/2015 08:00:00
  Ending Date .............. 08/28/2015 12:00:00
  Antecedent Dry Days ...... 4.0
  Report Time Step ......... 00:01:00
  Wet Time Step ............ 00:01:00
  Dry Time Step ............ 00:01:00
  Routing Time Step ........ 5.00 sec
  Variable Time Step ....... YES
  Maximum Trials ........... 8
  Number of Threads ........ 1
  Head Tolerance ........... 0.001500 m
  
  
  **************************        Volume         Depth
  Runoff Quantity Continuity     hectare-m            mm
  **************************     ---------       -------
  Total Precipitation ......         3.579        12.688
  Evaporation Loss .........         0.000         0.000
  Infiltration Loss ........         1.724         6.113
  Surface Runoff ...........         0.800         2.838
  Final Storage ............         1.056         3.743
  Continuity Error (%) .....        -0.051
  
  
  **************************           COD         NH3-N            TN            TP            SS
  Runoff Quality Continuity             kg            kg            kg            kg            kg
  **************************    ----------    ----------    ----------    ----------    ----------
  Initial Buildup ..........     13074.240         0.000         0.000         0.000         0.000
  Surface Buildup ..........       109.367         0.000         0.000         0.000         0.000
  Wet Deposition ...........         0.000         0.000         0.000         0.000         0.000
  Sweeping Removal .........         0.000         0.000         0.000         0.000         0.000
  Infiltration Loss ........        88.892         0.000         0.000         0.000         0.000
  BMP Removal ..............         0.000         0.000         0.000         0.000         0.000
  Surface Runoff ...........       842.634         0.000         0.000         0.000         0.000
  Remaining Buildup ........     12251.242         0.000         0.000         0.000         0.000
  Continuity Error (%) .....         0.006         0.000         0.000         0.000         0.000
  
  
  **************************        Volume        Volume
  Flow Routing Continuity        hectare-m      10^6 ltr
  **************************     ---------     ---------
  Dry Weather Inflow .......         0.000         0.000
  Wet Weather Inflow .......         0.798         7.982
  Groundwater Inflow .......         0.000         0.000
  RDII Inflow ..............         0.000         0.000
  External Inflow ..........         0.561         5.611
  External Outflow .........         0.931         9.308
  Flooding Loss ............         0.383         3.833
  Evaporation Loss .........         0.000         0.000
  Exfiltration Loss ........         0.000         0.000
  Initial Stored Volume ....         0.000         0.000
  Final Stored Volume ......         0.078         0.778
  Continuity Error (%) .....        -2.403
  
  
  **************************           COD         NH3-N            TN            TP            SS
  Quality Routing Continuity            kg            kg            kg            kg            kg
  **************************    ----------    ----------    ----------    ----------    ----------
  Dry Weather Inflow .......         0.000         0.000         0.000         0.000         0.000
  Wet Weather Inflow .......       840.736         0.000         0.000         0.000         0.000
  Groundwater Inflow .......         0.000         0.000         0.000         0.000         0.000
  RDII Inflow ..............         0.000         0.000         0.000         0.000         0.000
  External Inflow ..........       937.008         0.000         0.000         0.000         0.000
  External Outflow .........      1116.213         0.000         0.000         0.000         0.000
  Flooding Loss ............       460.664         0.000         0.000         0.000         0.000
  Exfiltration Loss ........         0.000         0.000         0.000         0.000         0.000
  Mass Reacted .............         0.000         0.000         0.000         0.000         0.000
  Initial Stored Mass ......         0.000         0.000         0.000         0.000         0.000
  Final Stored Mass ........        83.026         0.000         0.000         0.000         0.000
  Continuity Error (%) .....         6.629         0.000         0.000         0.000         0.000
  
  
  *************************
  Highest Continuity Errors
  *************************
  Node WS02003099 (1.25%)
  Node WS02003094 (1.00%)
  
  
  ***************************
  Time-Step Critical Elements
  ***************************
  Link WSL2448 (64.72%)
  Link WSL1477 (18.62%)
  Link XRpipe (8.37%)
  Link WSL2867 (1.64%)
  
  
  ********************************
  Highest Flow Instability Indexes
  ********************************
  Link WSL1477 (96)
  Link WSL1516 (74)
  Link WSL1515 (22)
  Link WSL2867 (18)
  Link WSL1475 (17)
  
  
  *************************
  Routing Time Step Summary
  *************************
  Minimum Time Step           :     0.02 sec
  Average Time Step           :     2.63 sec
  Maximum Time Step           :     5.00 sec
  Percent in Steady State     :     0.00
  Average Iterations per Step :     2.76
  Percent Not Converging      :     7.27
  
  
  ***************************
  Subcatchment Runoff Summary
  ***************************
  
  --------------------------------------------------------------------------------------------------------
                            Total      Total      Total      Total      Total       Total     Peak  Runoff
                           Precip      Runon       Evap      Infil     Runoff      Runoff   Runoff   Coeff
  Subcatchment                 mm         mm         mm         mm         mm    10^6 ltr      MLD
  --------------------------------------------------------------------------------------------------------
  1                         12.69      11.51       0.00       8.11       9.56        0.12     2.07   0.395
  2                         12.69       0.00       0.00       6.70       3.64        0.12     2.29   0.287
  3                         12.69       0.00       0.00       6.72       3.49        0.18     3.28   0.275
  4                         12.69       0.00       0.00       6.69       3.73        0.10     1.86   0.294
  5                         12.69       9.04       0.00       7.98       8.09        0.14     2.50   0.372
  6                         12.69       0.00       0.00       6.72       3.50        0.17     3.19   0.276
  7                         12.69       0.00       0.00       5.46       3.11        4.98    82.45   0.245
  8                         12.69       0.00       0.00       6.71       3.56        0.15     2.79   0.280
  9                         12.69       3.50       0.00       7.29       4.91        0.19     3.39   0.303
  17                        12.69       0.00       0.00       6.71       3.61        0.13     2.46   0.285
  18                        12.69       0.00       0.00       6.72       3.55        0.15     2.85   0.280
  28                        12.69      10.68       0.00       8.15       8.14        0.21     3.78   0.348
  29                        12.69       4.47       0.00       7.31       5.46        0.13     2.40   0.318
  30                        12.69      13.81       0.00       8.43      11.63        0.11     1.98   0.439
  31                        12.69       0.00       0.00       6.71       3.62        0.13     2.39   0.286
  33                        12.69       0.00       0.00       6.61       4.21        0.04     0.72   0.332
  34                        12.69       7.75       0.00       7.86       7.25        0.15     2.74   0.355
  35                        12.69       0.00       0.00       6.70       3.68        0.11     2.08   0.290
  36                        12.69       6.99       0.00       7.82       5.92        0.35     6.22   0.301
  39                        12.69       0.00       0.00       6.70       3.64        0.12     2.31   0.287
  40                        12.69       1.91       0.00       7.04       4.29        0.17     3.08   0.294
  41                        12.69       0.00       0.00       6.67       3.86        0.07     1.42   0.304
  42                        12.69       0.00       0.00       6.68       3.79        0.09     1.63   0.299
  43                        12.69       0.00       0.00       6.52       4.66        0.02     0.34   0.367
  44                        12.69      98.54       0.00      12.67      79.56        0.29     5.11   0.715
  45                        12.69       0.00       0.00       6.62       4.13        0.04     0.83   0.326
  46                        12.69       5.81       0.00       7.57       6.27        0.13     2.46   0.339
  47                        12.69       0.00       0.00       6.63       4.10        0.05     0.88   0.323
  48                        12.69       2.88       0.00       7.12       5.20        0.08     1.55   0.334
  55                        12.69       4.27       0.00       7.25       6.36        0.05     1.01   0.375
  56                        12.69       6.42       0.00       7.64       6.53        0.14     2.56   0.342
  57                        12.69       0.00       0.00       6.72       3.50        0.17     3.22   0.276
  59                        12.69       0.00       0.00       6.61       4.23        0.04     0.69   0.333
  60                        12.69       9.36       0.00       7.81       9.84        0.05     0.97   0.446
  61                        12.69       0.00       0.00       6.77       3.05        0.55     9.91   0.240
  62                        12.69       0.00       0.00       6.77       3.03        0.58    10.39   0.239
  64                        12.69       0.00       0.00       6.64       4.06        0.05     0.94   0.320
  
  
  ****************************
  Subcatchment Washoff Summary
  ****************************
  
  ------------------------------------------------------------------------------------------
                                 COD         NH3-N            TN            TP            SS
  Subcatchment                    kg            kg            kg            kg            kg
  ------------------------------------------------------------------------------------------
  1                           10.943         0.000         0.000         0.000         0.000
  2                            0.000         0.000         0.000         0.000         0.000
  3                            0.000         0.000         0.000         0.000         0.000
  4                           10.527         0.000         0.000         0.000         0.000
  5                           31.461         0.000         0.000         0.000         0.000
  6                           17.381         0.000         0.000         0.000         0.000
  7                          472.601         0.000         0.000         0.000         0.000
  8                           15.356         0.000         0.000         0.000         0.000
  9                           28.304         0.000         0.000         0.000         0.000
  17                          13.661         0.000         0.000         0.000         0.000
  18                          15.649         0.000         0.000         0.000         0.000
  28                          58.650         0.000         0.000         0.000         0.000
  29                          26.867         0.000         0.000         0.000         0.000
  30                          29.823         0.000         0.000         0.000         0.000
  31                          13.298         0.000         0.000         0.000         0.000
  33                           4.309         0.000         0.000         0.000         0.000
  34                          32.147         0.000         0.000         0.000         0.000
  35                          11.697         0.000         0.000         0.000         0.000
  36                          69.607         0.000         0.000         0.000         0.000
  39                          12.871         0.000         0.000         0.000         0.000
  40                          22.027         0.000         0.000         0.000         0.000
  41                           8.162         0.000         0.000         0.000         0.000
  42                           9.295         0.000         0.000         0.000         0.000
  43                           2.167         0.000         0.000         0.000         0.000
  44                          69.904         0.000         0.000         0.000         0.000
  45                           4.924         0.000         0.000         0.000         0.000
  46                          26.741         0.000         0.000         0.000         0.000
  47                           5.225         0.000         0.000         0.000         0.000
  48                          12.910         0.000         0.000         0.000         0.000
  55                           9.961         0.000         0.000         0.000         0.000
  56                          29.685         0.000         0.000         0.000         0.000
  57                          17.552         0.000         0.000         0.000         0.000
  59                           4.192         0.000         0.000         0.000         0.000
  60                          13.149         0.000         0.000         0.000         0.000
  61                          48.941         0.000         0.000         0.000         0.000
  62                          51.052         0.000         0.000         0.000         0.000
  64                           5.559         0.000         0.000         0.000         0.000
  ------------------------------------------------------------------------------------------
  System                    1216.600         0.000         0.000         0.000         0.000
  
  
  ******************
  Node Depth Summary
  ******************
  
  ---------------------------------------------------------------------------------
                                 Average  Maximum  Maximum  Time of Max    Reported
                                   Depth    Depth      HGL   Occurrence   Max Depth
  Node                 Type       Meters   Meters   Meters  days hr:min      Meters
  ---------------------------------------------------------------------------------
  WS01000070           JUNCTION     0.00     0.00     0.00     0  00:00        0.00
  WS01000323           JUNCTION     0.00     0.00     0.00     0  00:00        0.00
  WS01000533           JUNCTION     0.00     0.00     6.86     0  00:00        0.00
  WS01005172           JUNCTION     0.00     0.00     0.00     0  00:00        0.00
  WS01005181           JUNCTION     0.00     0.00     0.00     0  00:00        0.00
  WS01009841           JUNCTION     0.00     0.00     0.00     0  00:00        0.00
  WS02000078           JUNCTION     0.00     0.00     0.00     0  00:00        0.00
  WS02000112           JUNCTION     0.00     0.00     0.00     0  00:00        0.00
  WS02000136           JUNCTION     0.00     0.00     0.00     0  00:00        0.00
  WS02001211           JUNCTION     0.41     0.49     5.33     0  03:16        0.48
  WS02001212           JUNCTION     0.35     0.47     5.27     0  03:14        0.47
  WS02001213           JUNCTION     0.45     0.58     5.28     0  03:15        0.58
  WS02003059           JUNCTION     0.42     0.60     5.25     0  03:13        0.60
  WS02003060           JUNCTION     0.48     0.69     5.24     0  03:09        0.69
  WS02003066           JUNCTION     0.19     0.37     5.67     0  03:11        0.36
  WS02003067           JUNCTION     0.33     0.60     5.92     0  03:08        0.59
  WS02003071           JUNCTION     0.53     0.77     5.17     0  03:18        0.76
  WS02003072           JUNCTION     0.44     0.71     5.08     0  03:17        0.71
  WS02003073           JUNCTION     0.51     0.88     5.12     0  03:17        0.78
  WS02003076           JUNCTION     0.46     0.73     4.96     0  03:16        0.73
  WS02003077           JUNCTION     0.06     0.10     5.11     0  03:05        0.09
  WS02003078           JUNCTION     0.04     0.06     6.96     0  03:05        0.06
  WS02003079           JUNCTION     0.12     0.19     7.10     0  03:07        0.19
  WS02003093           JUNCTION     0.02     0.04     7.38     0  03:01        0.04
  WS02003094           JUNCTION     0.10     0.16     7.38     0  03:01        0.16
  WS02003098           JUNCTION     0.06     0.11     7.28     0  03:02        0.11
  WS02003099           JUNCTION     0.13     0.21     7.25     0  03:02        0.21
  WS02003102           JUNCTION     0.11     0.19     7.22     0  03:01        0.19
  WS02003103           JUNCTION     0.13     0.22     7.19     0  03:02        0.21
  WS02003104           JUNCTION     0.13     0.21     7.17     0  03:02        0.21
  WS02003106           JUNCTION     0.13     0.21     7.14     0  03:03        0.21
  WS02004050           JUNCTION     0.32     0.46     4.68     0  03:18        0.46
  WS02004053           JUNCTION     0.00     0.00     0.00     0  00:00        0.00
  WS02004136           JUNCTION     0.17     0.21     6.94     0  00:01        0.18
  WS02004139           JUNCTION     0.34     0.39     5.35     0  03:17        0.39
  WS02004401           JUNCTION     0.33     0.63     6.63     0  03:10        0.63
  WS02004402           JUNCTION     0.34     0.64     6.60     0  03:10        0.64
  WS02004403           JUNCTION     0.33     0.63     6.56     0  03:10        0.63
  WS02004404           JUNCTION     0.41     0.71     6.56     0  03:11        0.71
  WS02004405           JUNCTION     0.41     0.71     6.55     0  03:11        0.71
  WS02004406           JUNCTION     0.39     0.67     6.50     0  03:11        0.67
  WS02004407           JUNCTION     0.36     0.64     6.44     0  03:11        0.63
  WS02004409           JUNCTION     0.35     0.61     6.38     0  03:11        0.61
  WS02004410           JUNCTION     0.34     0.58     6.30     0  03:10        0.58
  WS02004411           JUNCTION     0.32     0.54     6.22     0  03:09        0.54
  WS02004412           JUNCTION     0.27     0.48     6.12     0  03:09        0.47
  WS02004413           JUNCTION     0.28     0.51     5.98     0  03:09        0.51
  WS02004997           JUNCTION     5.33     6.68     8.29     0  03:00        6.68
  WS02005192           JUNCTION     0.13     0.32     8.19     0  02:57        0.32
  WS02005193           JUNCTION     0.16     0.36     8.18     0  02:57        0.36
  WS02005196           JUNCTION     0.14     0.34     8.19     0  02:57        0.33
  WS02006109           JUNCTION     0.39     0.71     7.33     0  03:08        0.71
  WS02006110           JUNCTION     0.36     0.64     7.24     0  03:08        0.64
  WS02006111           JUNCTION     0.19     0.38     6.96     0  03:09        0.38
  WS02006112           JUNCTION     0.36     0.65     6.77     0  03:09        0.65
  WS02006113           JUNCTION     0.30     0.53     7.12     0  03:09        0.53
  WS02006115           JUNCTION     0.32     0.61     6.71     0  03:09        0.61
  WS02006116           JUNCTION     0.34     0.64     6.68     0  03:10        0.64
  WS02006183           JUNCTION     0.00     0.00     0.00     0  00:00        0.00
  WS02006228           JUNCTION     0.39     0.75     7.40     0  03:08        0.75
  WS02006229           JUNCTION     0.36     0.74     7.43     0  03:08        0.74
  WS02006230           JUNCTION     0.36     0.79     7.54     0  03:08        0.79
  WS02006231           JUNCTION     0.29     0.75     7.65     0  03:07        0.75
  WS02006232           JUNCTION     0.27     0.72     7.75     0  03:07        0.71
  WS02006234           JUNCTION     0.26     0.68     7.84     0  03:07        0.68
  WS02006235           JUNCTION     0.31     0.74     7.91     0  03:07        0.73
  WS02006238           JUNCTION     0.31     0.75     7.93     0  03:07        0.74
  WS02006239           JUNCTION     0.31     0.74     7.95     0  03:07        0.73
  WS02006242           JUNCTION     0.30     0.67     7.97     0  03:08        0.67
  WS02006240           JUNCTION     0.26     0.67     7.96     0  03:08        0.67
  WS02006243           JUNCTION     0.23     0.57     7.99     0  03:08        0.56
  WS02006245           JUNCTION     0.23     0.51     8.00     0  03:08        0.51
  WS02006247           JUNCTION     0.25     0.51     8.02     0  03:09        0.51
  WS02006248           JUNCTION     0.20     0.45     8.04     0  02:57        0.44
  WS02006249           JUNCTION     0.23     0.48     8.08     0  02:57        0.48
  WS02006251           JUNCTION     0.22     0.48     8.15     0  02:57        0.48
  WS02006253           JUNCTION     0.16     0.38     8.18     0  02:56        0.37
  WS02618401           JUNCTION     0.00     0.00     0.00     0  00:00        0.00
  WS8802               JUNCTION     0.00     0.00     4.38     0  00:00        0.00
  WSA1649              JUNCTION     0.00     0.00     0.00     0  00:00        0.00
  WSF200               JUNCTION     0.18     0.36     5.46     0  03:12        0.33
  XR-Inflow            JUNCTION     5.19     6.55     8.36     0  02:26        6.55
  WS02004114           JUNCTION     5.29     6.65     8.25     0  03:00        6.65
  outfall-2            OUTFALL      0.00     0.00     7.00     0  00:00        0.00
  outfall-5            OUTFALL      0.00     0.00     7.67     0  00:00        0.00
  outfall-14           OUTFALL      0.00     0.00     7.66     0  00:00        0.00
  outfall-16           OUTFALL      0.00     0.00     8.39     0  00:00        0.00
  12                   OUTFALL      0.32     0.46     0.46     0  03:18        0.45
  XR-storage           STORAGE      6.25     7.72     8.22     0  01:25        7.72
  CC-storage           STORAGE      0.96     4.49     7.67     0  02:35        4.49
  JK-storage           STORAGE      1.16     4.80     7.80     0  02:43        4.80
  
  
  *******************
  Node Inflow Summary
  *******************
  
  -------------------------------------------------------------------------------------------------
                                  Maximum  Maximum                  Lateral       Total        Flow
                                  Lateral    Total  Time of Max      Inflow      Inflow     Balance
                                   Inflow   Inflow   Occurrence      Volume      Volume       Error
  Node                 Type           MLD      MLD  days hr:min    10^6 ltr    10^6 ltr     Percent
  -------------------------------------------------------------------------------------------------
  WS01000070           JUNCTION      0.00     0.00     0  00:00           0           0       0.000 ltr
  WS01000323           JUNCTION      0.00     0.00     0  00:00           0           0       0.000 ltr
  WS01000533           JUNCTION      0.00     0.00     0  00:00           0           0       0.000 ltr
  WS01005172           JUNCTION      0.00     0.00     0  00:00           0           0       0.000 ltr
  WS01005181           JUNCTION      0.00     0.00     0  00:00           0           0       0.000 ltr
  WS01009841           JUNCTION      0.00     0.00     0  00:00           0           0       0.000 ltr
  WS02000078           JUNCTION      0.00     0.00     0  00:00           0           0       0.000 ltr
  WS02000112           JUNCTION      0.00     0.00     0  00:00           0           0       0.000 ltr
  WS02000136           JUNCTION      0.00     0.00     0  00:00           0           0       0.000 ltr
  WS02001211           JUNCTION      0.25    35.75     0  00:02      0.0407        4.69       0.545
  WS02001212           JUNCTION      0.21    35.15     0  00:04      0.0346         4.7       0.308
  WS02001213           JUNCTION      0.30    38.18     0  03:21      0.0489        4.74       0.393
  WS02003059           JUNCTION      0.23    36.94     0  00:05      0.0378        4.76       0.483
  WS02003060           JUNCTION      0.16   112.99     0  03:12      0.0252        8.76       0.360
  WS02003066           JUNCTION      0.08    93.51     0  03:08      0.0122        3.99       0.155
  WS02003067           JUNCTION      0.26    73.16     0  03:13      0.0395        3.98       0.146
  WS02003071           JUNCTION      0.35   108.33     0  03:13      0.0538        8.78       0.395
  WS02003072           JUNCTION      0.24   110.07     0  03:19      0.0382        8.79       0.242
  WS02003073           JUNCTION      0.07   120.08     0  03:18     0.00978        9.16       0.247
  WS02003076           JUNCTION      0.72   135.34     0  03:24        0.12        9.26       0.160
  WS02003077           JUNCTION      0.04     6.66     0  03:05      0.0059       0.382       0.146
  WS02003078           JUNCTION      0.03     7.65     0  03:05     0.00419       0.376      -0.113
  WS02003079           JUNCTION      0.04     6.11     0  03:03     0.00561       0.373       0.334
  WS02003093           JUNCTION      0.02     0.02     0  01:00     0.00306     0.00306       0.731
  WS02003094           JUNCTION      3.44     3.44     0  03:01       0.195       0.198       1.015
  WS02003098           JUNCTION      0.02     3.42     0  03:01     0.00293       0.199       0.591
  WS02003099           JUNCTION      0.07     3.45     0  03:02      0.0109       0.209       1.261
  WS02003102           JUNCTION      2.81     6.12     0  03:01       0.155       0.361       0.582
  WS02003103           JUNCTION      0.02     6.08     0  03:01     0.00239       0.361       0.434
  WS02003104           JUNCTION      0.02     6.07     0  03:02     0.00302       0.363       0.365
  WS02003106           JUNCTION      0.05     6.10     0  03:02     0.00727       0.369       0.452
  WS02004050           JUNCTION      0.72   141.87     0  03:17       0.119        9.36       0.547
  WS02004053           JUNCTION      0.00     0.00     0  00:00           0           0       0.000 ltr
  WS02004136           JUNCTION      0.44    32.92     0  01:40      0.0703        4.61       0.066
  WS02004139           JUNCTION      0.38    39.53     0  00:01      0.0619        4.67       0.368
  WS02004401           JUNCTION      0.05    62.32     0  03:10     0.00897        3.11       0.152
  WS02004402           JUNCTION      0.22    62.45     0  03:10      0.0335        3.13       0.139
  WS02004403           JUNCTION      0.23    62.62     0  03:10      0.0349        3.17       0.110
  WS02004404           JUNCTION      0.24    62.78     0  03:10      0.0365         3.2       0.122
  WS02004405           JUNCTION      1.93    63.88     0  03:11       0.111        3.31       0.177
  WS02004406           JUNCTION      3.90    66.88     0  03:11       0.235        3.53       0.253
  WS02004407           JUNCTION      0.11    66.93     0  03:11      0.0171        3.54       0.225
  WS02004409           JUNCTION      2.69    68.95     0  03:11       0.172        3.71       0.192
  WS02004410           JUNCTION      0.15    69.07     0  03:12      0.0226        3.72       0.197
  WS02004411           JUNCTION      0.25    69.36     0  03:12      0.0379        3.75       0.171
  WS02004412           JUNCTION      3.27    71.20     0  03:11       0.187        3.93       0.130
  WS02004413           JUNCTION      0.11    71.66     0  03:12      0.0172        3.95       0.120
  WS02004997           JUNCTION      0.42    63.57     0  03:00      0.0693        7.24       0.579
  WS02005192           JUNCTION      3.31     3.31     0  03:01       0.192       0.193       0.155
  WS02005193           JUNCTION      0.09     6.29     0  02:57      0.0146       0.231       0.318
  WS02005196           JUNCTION      0.12     4.49     0  02:58       0.019       0.214       0.335
  WS02006109           JUNCTION      0.08    59.40     0  03:08      0.0135         2.8       0.225
  WS02006110           JUNCTION      0.08    59.45     0  03:08      0.0132        2.81       0.216
  WS02006111           JUNCTION      0.24    61.97     0  03:09      0.0366        3.04       0.071
  WS02006112           JUNCTION      0.18    62.14     0  03:09      0.0273        3.06       0.177
  WS02006113           JUNCTION      3.42    61.76     0  03:08       0.204        3.01       0.150
  WS02006115           JUNCTION      0.08    62.19     0  03:09      0.0134        3.07       0.167
  WS02006116           JUNCTION      0.24    62.30     0  03:10       0.036         3.1       0.165
  WS02006183           JUNCTION      0.00     0.00     0  00:00           0           0       0.000 ltr
  WS02006228           JUNCTION      5.26    59.35     0  03:08       0.322        2.79       0.159
  WS02006229           JUNCTION      0.13    54.30     0  03:08        0.02        2.47       0.136
  WS02006230           JUNCTION      0.07    54.24     0  03:08      0.0116        2.46       0.114
  WS02006231           JUNCTION      0.13    54.17     0  03:08      0.0205        2.45       0.065
  WS02006232           JUNCTION      2.36    54.08     0  03:07       0.136        2.43       0.068
  WS02006234           JUNCTION      0.14    52.71     0  03:07      0.0216        2.29       0.077
  WS02006235           JUNCTION      0.14    52.62     0  03:07      0.0223        2.27       0.050
  WS02006238           JUNCTION      0.15    52.48     0  03:07      0.0235        2.25       0.072
  WS02006239           JUNCTION      0.11    32.00     0  02:58      0.0174        1.44       0.179
  WS02006242           JUNCTION      0.08    32.62     0  02:58      0.0129        1.41       0.221
  WS02006240           JUNCTION      0.06    32.28     0  02:58     0.00992        1.42       0.135
  WS02006243           JUNCTION      0.17    33.03     0  02:57      0.0269         1.4       0.121
  WS02006245           JUNCTION      0.07    33.15     0  02:57      0.0113        1.38       0.109
  WS02006247           JUNCTION      2.21    33.31     0  02:57        0.14        1.37       0.114
  WS02006248           JUNCTION      0.12    31.44     0  02:57      0.0192        1.23       0.060
  WS02006249           JUNCTION      0.19    31.74     0  02:57      0.0286        1.21       0.119
  WS02006251           JUNCTION      1.07    32.12     0  02:56      0.0626        1.18       0.088
  WS02006253           JUNCTION      0.11    31.53     0  02:56      0.0173        1.12       0.027
  WS02618401           JUNCTION      0.00     0.00     0  00:00           0           0       0.000 ltr
  WS8802               JUNCTION      0.00     0.00     0  00:00           0           0       0.000 ltr
  WSA1649              JUNCTION      0.00     0.00     0  00:00           0           0       0.000 ltr
  WSF200               JUNCTION      0.14    85.78     0  03:12      0.0216           4      -0.028
  XR-Inflow            JUNCTION    100.10   100.10     0  03:00        8.31        8.31       0.321
  WS02004114           JUNCTION      0.57    64.10     0  02:59      0.0916        7.29       0.372
  outfall-2            OUTFALL       0.00     0.00     0  00:00           0           0       0.000 ltr
  outfall-5            OUTFALL       0.00     0.00     0  00:00           0           0       0.000 ltr
  outfall-14           OUTFALL       0.00     0.00     0  00:00           0           0       0.000 ltr
  outfall-16           OUTFALL       0.00     0.00     0  00:00           0           0       0.000 ltr
  12                   OUTFALL       0.00   117.52     0  03:18           0        9.31       0.000
  XR-storage           STORAGE       0.00    64.10     0  02:59           0        7.26      -0.810
  CC-storage           STORAGE      11.39    11.39     0  03:00       0.835       0.835     -14.044
  JK-storage           STORAGE      11.28    11.28     0  03:01       0.751       0.751     -11.368
  
  
  **********************
  Node Surcharge Summary
  **********************
  
  Surcharging occurs when water rises above the top of the highest conduit.
  ---------------------------------------------------------------------
                                               Max. Height   Min. Depth
                                   Hours       Above Crown    Below Rim
  Node                 Type      Surcharged         Meters       Meters
  ---------------------------------------------------------------------
  WS01000070           JUNCTION        4.00          0.000        0.000
  WS01000323           JUNCTION        4.00          0.000        0.000
  WS01000533           JUNCTION        4.00          0.000        2.147
  WS01005172           JUNCTION        4.00          0.000        0.000
  WS01005181           JUNCTION        4.00          0.000        0.000
  WS01009841           JUNCTION        4.00          0.000        0.000
  WS02000078           JUNCTION        4.00          0.000        0.000
  WS02000112           JUNCTION        4.00          0.000        0.000
  WS02000136           JUNCTION        4.00          0.000        0.000
  WS02004053           JUNCTION        4.00          0.000        0.000
  WS02004997           JUNCTION        3.06          5.784        0.216
  WS02006183           JUNCTION        4.00          0.000        0.000
  WS02006231           JUNCTION        0.08          0.049        1.494
  WS02006232           JUNCTION        0.02          0.015        1.474
  WS02006235           JUNCTION        0.03          0.039        1.255
  WS02006238           JUNCTION        0.04          0.051        1.383
  WS02006239           JUNCTION        0.03          0.036        1.293
  WS02618401           JUNCTION        4.00          0.000        0.000
  WS8802               JUNCTION        4.00          0.000        4.942
  WSA1649              JUNCTION        4.00          0.000        0.000
  XR-Inflow            JUNCTION        3.02          5.650        0.000
  WS02004114           JUNCTION        3.07          5.748        0.767
  
  
  *********************
  Node Flooding Summary
  *********************
  
  Flooding refers to all water that overflows a node, whether it ponds or not.
  --------------------------------------------------------------------------
                                                             Total   Maximum
                                 Maximum   Time of Max       Flood    Ponded
                        Hours       Rate    Occurrence      Volume     Depth
  Node                 Flooded       MLD   days hr:min    10^6 ltr    Meters
  --------------------------------------------------------------------------
  XR-Inflow               1.56     36.93      0  03:00       1.117     0.000
  XR-storage              2.58     31.62      0  02:59       2.715     0.000
  JK-storage              0.03      2.88      0  02:43       0.002     0.000
  
  
  **********************
  Storage Volume Summary
  **********************
  
  --------------------------------------------------------------------------------------------------
                         Average     Avg  Evap Exfil       Maximum     Max    Time of Max    Maximum
                          Volume    Pcnt  Pcnt  Pcnt        Volume    Pcnt     Occurrence    Outflow
  Storage Unit           1000 m3    Full  Loss  Loss       1000 m3    Full    days hr:min        MLD
  --------------------------------------------------------------------------------------------------
  XR-storage               0.051      81     0     0         0.063     100       0  01:25      32.48
  CC-storage               0.027      17     0     0         0.127      80       0  02:35      29.14
  JK-storage               0.033      24     0     0         0.136     100       0  02:43      31.02
  
  
  ***********************
  Outfall Loading Summary
  ***********************
  
  ---------------------------------------------------------------------------------------------------------------------------------
                         Flow       Avg       Max       Total         Total         Total         Total         Total         Total
                         Freq      Flow      Flow      Volume           COD         NH3-N            TN            TP            SS
  Outfall Node           Pcnt       MLD       MLD    10^6 ltr            kg            kg            kg            kg            kg
  ---------------------------------------------------------------------------------------------------------------------------------
  outfall-2              0.00      0.00      0.00       0.000         0.000         0.000         0.000         0.000         0.000
  outfall-5              0.00      0.00      0.00       0.000         0.000         0.000         0.000         0.000         0.000
  outfall-14             0.00      0.00      0.00       0.000         0.000         0.000         0.000         0.000         0.000
  outfall-16             0.00      0.00      0.00       0.000         0.000         0.000         0.000         0.000         0.000
  12                    99.98     63.98    117.52       9.308      1116.279         0.000         0.000         0.000         0.000
  ---------------------------------------------------------------------------------------------------------------------------------
  System                20.00     63.98    117.52       9.308      1116.279         0.000         0.000         0.000         0.000
  
  
  ********************
  Link Flow Summary
  ********************
  
  -----------------------------------------------------------------------------
                                 Maximum  Time of Max   Maximum    Max/    Max/
                                  |Flow|   Occurrence   |Veloc|    Full    Full
  Link                 Type          MLD  days hr:min     m/sec    Flow   Depth
  -----------------------------------------------------------------------------
  WSL49                CONDUIT    134.62     0  03:24      2.45    1.67    0.66
  WSL1465              CONDUIT     37.35     0  03:24      1.99    0.34    0.64
  WSL1472              CONDUIT    109.85     0  03:19      1.91    1.25    0.60
  WSL1475              CONDUIT    141.16     0  03:17      2.88    1.51    0.41
  WSL1476              CONDUIT      6.35     0  03:05      0.40    0.03    0.56
  WSL1477              CONDUIT      7.63     0  03:05      2.05    0.30    0.21
  WSL1490              CONDUIT     34.94     0  00:04      1.60    0.57    0.48
  WSL1491              CONDUIT     37.90     0  03:21      1.86    0.22    0.52
  WSL1492              CONDUIT     36.71     0  00:05      1.71    0.57    0.59
  WSL1507              CONDUIT      0.08     0  03:03      0.11    0.00    0.13
  WSL1508              CONDUIT      3.40     0  03:01      0.71    0.10    0.17
  WSL1512              CONDUIT      3.40     0  03:02      0.50    0.02    0.16
  WSL1513              CONDUIT      3.47     0  03:03      0.42    0.20    0.25
  WSL1515              CONDUIT     93.44     0  03:08      2.72    0.91    0.38
  WSL1516              CONDUIT      6.63     0  03:05      3.54    0.02    0.13
  WSL1518              CONDUIT      6.06     0  03:01      0.70    0.12    0.25
  WSL1519              CONDUIT      6.06     0  03:02      0.68    0.15    0.26
  WSL1521              CONDUIT      6.08     0  03:03      0.74    0.17    0.25
  WSL1543              CONDUIT      6.06     0  03:02      0.66    0.19    0.26
  WSL1961              CONDUIT     39.15     0  00:01      3.75    0.08    0.28
  WSL1964              CONDUIT     35.50     0  00:02      1.79    0.19    0.36
  WSL2010              CONDUIT     62.44     0  03:10      1.37    0.80    0.64
  WSL2011              CONDUIT     62.58     0  03:10      1.29    0.40    0.67
  WSL2012              CONDUIT     62.76     0  03:11      1.21    0.96    0.71
  WSL2013              CONDUIT     63.88     0  03:11      1.27    1.59    0.69
  WSL2014              CONDUIT     66.83     0  03:11      1.42    1.07    0.65
  WSL2015              CONDUIT     67.00     0  03:11      1.51    0.90    0.62
  WSL2016              CONDUIT     68.94     0  03:12      1.64    0.79    0.60
  WSL2017              CONDUIT     69.16     0  03:12      1.77    0.84    0.56
  WSL2018              CONDUIT     71.57     0  03:12      2.23    0.43    0.49
  WSL2019              CONDUIT     72.95     0  03:13      2.10    0.43    0.55
  WSL2028              CONDUIT     62.28     0  03:10      1.37    0.67    0.64
  WSL2029              CONDUIT     69.26     0  03:12      2.03    0.88    0.51
  WSL2038              CONDUIT      4.38     0  02:58      0.55    0.22    0.55
  WSL2039              CONDUIT      6.61     0  02:57      0.84    0.34    0.62
  WSL2041              CONDUIT      6.21     0  02:57      0.62    0.30    0.58
  WSL2294              CONDUIT     59.37     0  03:08      1.52    1.99    0.84
  WSL2295              CONDUIT     59.44     0  03:08      1.76    2.67    0.73
  WSL2296              CONDUIT     61.99     0  03:09      2.09    0.35    0.64
  WSL2297              CONDUIT     62.11     0  03:09      1.38    1.19    0.63
  WSL2298              CONDUIT     61.78     0  03:09      2.43    2.84    0.57
  WSL2301              CONDUIT     62.11     0  03:10      1.40    0.57    0.62
  WSL2302              CONDUIT     62.26     0  03:10      1.37    0.76    0.63
  WSL2441              CONDUIT     59.32     0  03:08      1.43    1.52    0.91
  WSL2442              CONDUIT     54.19     0  03:08      1.63    1.39    1.00
  WSL2443              CONDUIT     54.17     0  03:08      1.63    0.84    1.00
  WSL2444              CONDUIT     54.06     0  03:08      1.76    0.86    1.00
  WSL2446              CONDUIT     52.44     0  03:07      1.81    0.90    0.99
  WSL2447              CONDUIT     52.60     0  03:07      1.73    2.71    0.99
  WSL2448              CONDUIT     52.50     0  03:07      1.61    1.48    1.00
  WSL2449              CONDUIT     31.78     0  02:59      1.04    1.11    1.00
  WSL2450              CONDUIT     31.90     0  02:58      1.13    0.66    0.98
  WSL2451              CONDUIT     32.22     0  02:58      1.14    2.10    0.96
  WSL2452              CONDUIT     32.54     0  02:58      1.19    0.62    0.89
  WSL2454              CONDUIT     32.88     0  02:57      1.34    0.77    0.77
  WSL2478              CONDUIT     33.08     0  02:57      1.34    1.17    0.73
  WSL2479              CONDUIT     31.24     0  02:57      1.30    0.59    0.68
  WSL2480              CONDUIT     31.32     0  02:57      1.34    1.45    0.66
  WSL2482              CONDUIT     31.57     0  02:57      1.30    0.82    0.69
  WSL2484              CONDUIT     31.13     0  02:56      1.45    0.44    0.62
  WSL2493              CONDUIT     54.27     0  03:08      1.29    0.91    0.93
  WSL2867              CONDUIT     85.66     0  03:12      3.74    0.18    0.29
  WSL2868              CONDUIT     77.57     0  03:12      1.98    0.15    0.43
  WSL348               CONDUIT     63.16     0  03:00      1.88    0.58    1.00
  WSL175               CONDUIT     63.56     0  03:00      2.36    2.14    1.00
  WSL1467              CONDUIT    108.04     0  03:13      1.80    0.57    0.60
  WSL1473              CONDUIT    115.82     0  03:18      2.02    0.47    0.64
  XRpipe               CONDUIT     64.10     0  02:59      8.80    0.16    1.00
  8                    CONDUIT      0.00     0  00:00      0.00    0.00    0.00
  19                   CONDUIT      0.00     0  00:00      0.00    0.00    0.00
  17                   CONDUIT      0.00     0  00:00      0.00    0.00    0.00
  4                    CONDUIT      0.00     0  00:00      0.00    0.00    0.00
  2                    CONDUIT    117.52     0  03:18      3.91    0.42    0.46
  XR-Pump-1            PUMP         8.12     0  00:01              1.00
  XR-Pump-3            PUMP         8.12     0  00:01              1.00
  XR-Pump-2            PUMP         8.12     0  00:01              1.00
  XR-Pump-4            PUMP         8.12     0  00:01              1.00
  CC-Pump-1            PUMP        11.86     0  02:56              0.69
  CC-Pump-2            PUMP        17.28     0  01:40              1.00
  JK-Pump-1            PUMP        13.74     0  03:07              0.79
  JK-Pump-2            PUMP        17.28     0  01:50              1.00
  
  
  ***************************
  Flow Classification Summary
  ***************************
  
  -------------------------------------------------------------------------------------
                      Adjusted    ---------- Fraction of Time in Flow Class ---------- 
                       /Actual         Up    Down  Sub   Sup   Up    Down  Norm  Inlet 
  Conduit               Length    Dry  Dry   Dry   Crit  Crit  Crit  Crit  Ltd   Ctrl  
  -------------------------------------------------------------------------------------
  WSL49                   1.00   0.00  0.00  0.00  0.99  0.01  0.00  0.00  0.00  0.00
  WSL1465                 1.00   0.00  0.00  0.00  0.99  0.01  0.00  0.00  0.08  0.00
  WSL1472                 1.00   0.00  0.00  0.00  1.00  0.00  0.00  0.00  0.00  0.00
  WSL1475                 1.00   0.00  0.00  0.00  0.13  0.87  0.00  0.00  0.01  0.00
  WSL1476                 1.00   0.00  0.00  0.00  1.00  0.00  0.00  0.00  1.00  0.00
  WSL1477                 1.00   0.00  0.00  0.00  0.01  0.99  0.00  0.00  0.37  0.00
  WSL1490                 1.00   0.00  0.00  0.00  1.00  0.00  0.00  0.00  0.00  0.00
  WSL1491                 1.00   0.00  0.00  0.00  1.00  0.00  0.00  0.00  0.08  0.00
  WSL1492                 1.00   0.00  0.00  0.00  1.00  0.00  0.00  0.00  0.00  0.00
  WSL1507                 1.00   0.00  0.00  0.00  1.00  0.00  0.00  0.00  0.76  0.00
  WSL1508                 1.00   0.00  0.00  0.00  1.00  0.00  0.00  0.00  0.00  0.00
  WSL1512                 1.00   0.00  0.00  0.00  1.00  0.00  0.00  0.00  1.00  0.00
  WSL1513                 1.00   0.00  0.00  0.00  1.00  0.00  0.00  0.00  0.00  0.00
  WSL1515                 1.00   0.00  0.00  0.00  0.14  0.86  0.00  0.00  0.05  0.00
  WSL1516                 1.00   0.00  0.00  0.00  0.00  1.00  0.00  0.00  1.00  0.00
  WSL1518                 1.00   0.00  0.00  0.00  1.00  0.00  0.00  0.00  0.64  0.00
  WSL1519                 1.00   0.00  0.00  0.00  1.00  0.00  0.00  0.00  0.35  0.00
  WSL1521                 1.00   0.00  0.00  0.00  1.00  0.00  0.00  0.00  0.02  0.00
  WSL1543                 1.00   0.00  0.00  0.00  1.00  0.00  0.00  0.00  0.02  0.00
  WSL1961                 1.00   0.00  0.00  0.00  0.03  0.97  0.00  0.00  0.99  0.00
  WSL1964                 1.00   0.00  0.00  0.00  1.00  0.00  0.00  0.00  0.10  0.00
  WSL2010                 1.00   0.00  0.00  0.00  1.00  0.00  0.00  0.00  0.00  0.00
  WSL2011                 1.00   0.00  0.00  0.00  1.00  0.00  0.00  0.00  0.18  0.00
  WSL2012                 1.00   0.00  0.00  0.00  1.00  0.00  0.00  0.00  0.00  0.00
  WSL2013                 1.00   0.00  0.00  0.00  1.00  0.00  0.00  0.00  0.00  0.00
  WSL2014                 1.00   0.00  0.00  0.00  1.00  0.00  0.00  0.00  0.00  0.00
  WSL2015                 1.00   0.00  0.00  0.00  1.00  0.00  0.00  0.00  0.02  0.00
  WSL2016                 1.00   0.00  0.00  0.00  1.00  0.00  0.00  0.00  0.04  0.00
  WSL2017                 1.00   0.00  0.00  0.00  1.00  0.00  0.00  0.00  0.04  0.00
  WSL2018                 1.00   0.00  0.00  0.00  0.01  0.99  0.00  0.00  0.14  0.00
  WSL2019                 1.00   0.00  0.00  0.00  0.50  0.50  0.00  0.00  0.11  0.00
  WSL2028                 1.00   0.00  0.00  0.00  1.00  0.00  0.00  0.00  0.06  0.00
  WSL2029                 1.00   0.00  0.00  0.00  0.48  0.52  0.00  0.00  0.00  0.00
  WSL2038                 1.00   0.00  0.00  0.00  1.00  0.00  0.00  0.00  0.01  0.00
  WSL2039                 1.00   0.00  0.00  0.00  1.00  0.00  0.00  0.00  0.02  0.00
  WSL2041                 1.00   0.00  0.00  0.00  1.00  0.00  0.00  0.00  0.25  0.00
  WSL2294                 1.00   0.00  0.00  0.00  1.00  0.00  0.00  0.00  0.00  0.00
  WSL2295                 1.00   0.00  0.00  0.00  1.00  0.00  0.00  0.00  0.00  0.00
  WSL2296                 1.00   0.00  0.00  0.00  0.19  0.81  0.00  0.00  0.72  0.00
  WSL2297                 1.00   0.00  0.00  0.00  1.00  0.00  0.00  0.00  0.00  0.00
  WSL2298                 1.00   0.00  0.00  0.00  0.06  0.94  0.00  0.00  0.00  0.00
  WSL2301                 1.00   0.00  0.00  0.00  1.00  0.00  0.00  0.00  0.09  0.00
  WSL2302                 1.00   0.00  0.00  0.00  1.00  0.00  0.00  0.00  0.00  0.00
  WSL2441                 1.00   0.00  0.00  0.00  1.00  0.00  0.00  0.00  0.01  0.00
  WSL2442                 1.00   0.00  0.00  0.00  1.00  0.00  0.00  0.00  0.12  0.00
  WSL2443                 1.00   0.00  0.00  0.00  0.99  0.01  0.00  0.00  0.49  0.00
  WSL2444                 1.00   0.00  0.00  0.00  0.29  0.71  0.00  0.00  0.32  0.00
  WSL2446                 1.00   0.00  0.00  0.00  0.34  0.66  0.00  0.00  0.36  0.00
  WSL2447                 1.00   0.00  0.00  0.00  1.00  0.00  0.00  0.00  0.00  0.00
  WSL2448                 1.00   0.00  0.00  0.00  1.00  0.00  0.00  0.00  0.01  0.00
  WSL2449                 1.00   0.00  0.00  0.00  1.00  0.00  0.00  0.00  0.04  0.00
  WSL2450                 1.00   0.00  0.00  0.00  1.00  0.00  0.00  0.00  0.41  0.00
  WSL2451                 1.00   0.00  0.00  0.00  1.00  0.00  0.00  0.00  0.00  0.00
  WSL2452                 1.00   0.00  0.00  0.00  1.00  0.00  0.00  0.00  0.57  0.00
  WSL2454                 1.00   0.00  0.00  0.00  1.00  0.00  0.00  0.00  0.06  0.00
  WSL2478                 1.00   0.00  0.00  0.00  1.00  0.00  0.00  0.00  0.00  0.00
  WSL2479                 1.00   0.00  0.00  0.00  1.00  0.00  0.00  0.00  0.56  0.00
  WSL2480                 1.00   0.00  0.00  0.00  1.00  0.00  0.00  0.00  0.00  0.00
  WSL2482                 1.00   0.00  0.00  0.00  1.00  0.00  0.00  0.00  0.59  0.00
  WSL2484                 1.00   0.00  0.00  0.00  0.99  0.01  0.00  0.00  0.55  0.00
  WSL2493                 1.00   0.00  0.00  0.00  1.00  0.00  0.00  0.00  0.05  0.00
  WSL2867                 1.00   0.00  0.00  0.00  0.00  1.00  0.00  0.00  0.22  0.00
  WSL2868                 1.00   0.00  0.00  0.00  0.94  0.06  0.00  0.00  0.87  0.00
  WSL348                  1.00   0.00  0.00  0.00  0.98  0.02  0.00  0.00  0.01  0.00
  WSL175                  1.00   0.00  0.00  0.00  0.89  0.11  0.00  0.00  0.01  0.00
  WSL1467                 1.00   0.00  0.00  0.00  1.00  0.00  0.00  0.00  0.13  0.00
  WSL1473                 1.00   0.00  0.00  0.00  1.00  0.00  0.00  0.00  0.04  0.00
  XRpipe                  1.00   0.00  0.00  0.00  0.90  0.10  0.00  0.00  0.04  0.00
  8                       1.00   1.00  0.00  0.00  0.00  0.00  0.00  0.00  0.00  0.00
  19                      1.00   1.00  0.00  0.00  0.00  0.00  0.00  0.00  0.00  0.00
  17                      1.00   1.00  0.00  0.00  0.00  0.00  0.00  0.00  0.00  0.00
  4                       1.00   1.00  0.00  0.00  0.00  0.00  0.00  0.00  0.00  0.00
  2                       1.00   0.00  0.00  0.00  0.00  1.00  0.00  0.00  0.32  0.00
  
  
  *************************
  Conduit Surcharge Summary
  *************************
  
  ----------------------------------------------------------------------------
                                                           Hours        Hours 
                         --------- Hours Full --------   Above Full   Capacity
  Conduit                Both Ends  Upstream  Dnstream   Normal Flow   Limited
  ----------------------------------------------------------------------------
  WSL49                       0.01      0.01      0.01      0.69         0.01
  WSL1472                     0.01      0.01      0.01      0.52         0.01
  WSL1475                     0.01      0.01      0.01      0.47         0.01
  WSL1476                     0.01      0.01      0.01      0.01         0.01
  WSL2013                     0.01      0.01      0.01      0.61         0.01
  WSL2014                     0.01      0.01      0.01      0.22         0.01
  WSL2294                     0.01      0.01      0.01      0.71         0.01
  WSL2295                     0.01      0.01      0.01      1.01         0.01
  WSL2297                     0.01      0.01      0.01      0.33         0.01
  WSL2298                     0.01      0.01      0.01      1.18         0.01
  WSL2441                     0.01      0.01      0.01      0.56         0.01
  WSL2442                     0.15      0.24      0.15      0.47         0.15
  WSL2443                     0.08      0.08      0.24      0.01         0.01
  WSL2444                     0.02      0.02      0.08      0.01         0.01
  WSL2446                     0.01      0.01      0.02      0.01         0.01
  WSL2447                     0.01      0.03      0.01      0.98         0.01
  WSL2448                     0.03      0.04      0.03      0.50         0.03
  WSL2449                     0.03      0.03      0.04      0.14         0.01
  WSL2450                     0.01      0.01      0.03      0.01         0.01
  WSL2451                     0.01      0.01      0.01      0.78         0.01
  WSL2478                     0.01      0.01      0.01      0.15         0.01
  WSL2480                     0.01      0.01      0.01      0.30         0.01
  WSL348                      3.02      3.02      3.06      0.01         0.01
  WSL175                      3.06      3.06      3.07      2.49         2.64
  XRpipe                      3.07      3.07      3.44      0.01         0.01
  
  
  ***************
  Pumping Summary
  ***************
  
  ---------------------------------------------------------------------------------------------------------
                                                  Min       Avg       Max     Total     Power    % Time Off
                        Percent   Number of      Flow      Flow      Flow    Volume     Usage    Pump Curve
  Pump                 Utilized   Start-Ups       MLD       MLD       MLD  10^6 ltr     Kw-hr    Low   High
  ---------------------------------------------------------------------------------------------------------
  XR-Pump-1               95.80           3      0.00      7.68      8.12     1.177      7.22    0.0    0.0
  XR-Pump-3               87.45           3      0.00      7.61      8.12     1.065      6.12    0.0    0.0
  XR-Pump-2               91.63           3      0.00      7.67      8.12     1.121      7.05    0.0    0.0
  XR-Pump-4               95.80           3      0.00      7.68      8.12     1.177      7.22    0.0    0.0
  CC-Pump-1               12.49           1      0.00      8.15     11.86     0.164      2.14    0.0    0.0
  CC-Pump-2               54.14           3      0.00      8.53     17.28     0.715      7.09    0.0    0.0
  JK-Pump-1               12.51           1      0.00      6.67     13.74     0.134      1.60    0.0    0.0
  JK-Pump-2               49.99           3      0.00      9.05     17.28     0.661      5.57    0.0    0.0
  
  
  ***************************
  Link Pollutant Load Summary
  ***************************
  
  ------------------------------------------------------------------------------------------
                                 COD         NH3-N            TN            TP            SS
  Link                            kg            kg            kg            kg            kg
  ------------------------------------------------------------------------------------------
  WSL49                     1082.920         0.000         0.000         0.000         0.000
  WSL1465                    551.447         0.000         0.000         0.000         0.000
  WSL1472                   1027.732         0.000         0.000         0.000         0.000
  WSL1475                   1101.073         0.000         0.000         0.000         0.000
  WSL1476                     52.622         0.000         0.000         0.000         0.000
  WSL1477                     50.643         0.000         0.000         0.000         0.000
  WSL1490                    537.895         0.000         0.000         0.000         0.000
  WSL1491                    541.965         0.000         0.000         0.000         0.000
  WSL1492                    547.750         0.000         0.000         0.000         0.000
  WSL1507                      0.507         0.000         0.000         0.000         0.000
  WSL1508                     30.216         0.000         0.000         0.000         0.000
  WSL1512                     30.609         0.000         0.000         0.000         0.000
  WSL1513                     32.154         0.000         0.000         0.000         0.000
  WSL1515                    465.851         0.000         0.000         0.000         0.000
  WSL1516                     51.338         0.000         0.000         0.000         0.000
  WSL1518                     48.041         0.000         0.000         0.000         0.000
  WSL1519                     48.704         0.000         0.000         0.000         0.000
  WSL1521                     49.763         0.000         0.000         0.000         0.000
  WSL1543                     48.308         0.000         0.000         0.000         0.000
  WSL1961                    525.938         0.000         0.000         0.000         0.000
  WSL1964                    533.852         0.000         0.000         0.000         0.000
  WSL2010                    309.312         0.000         0.000         0.000         0.000
  WSL2011                    314.533         0.000         0.000         0.000         0.000
  WSL2012                    320.003         0.000         0.000         0.000         0.000
  WSL2013                    332.009         0.000         0.000         0.000         0.000
  WSL2014                    392.900         0.000         0.000         0.000         0.000
  WSL2015                    394.390         0.000         0.000         0.000         0.000
  WSL2016                    430.607         0.000         0.000         0.000         0.000
  WSL2017                    433.257         0.000         0.000         0.000         0.000
  WSL2018                    457.840         0.000         0.000         0.000         0.000
  WSL2019                    460.102         0.000         0.000         0.000         0.000
  WSL2028                    304.280         0.000         0.000         0.000         0.000
  WSL2029                    438.683         0.000         0.000         0.000         0.000
  WSL2038                     20.685         0.000         0.000         0.000         0.000
  WSL2039                     27.291         0.000         0.000         0.000         0.000
  WSL2041                     24.312         0.000         0.000         0.000         0.000
  WSL2294                    281.980         0.000         0.000         0.000         0.000
  WSL2295                    283.120         0.000         0.000         0.000         0.000
  WSL2296                    292.689         0.000         0.000         0.000         0.000
  WSL2297                    296.843         0.000         0.000         0.000         0.000
  WSL2298                    286.806         0.000         0.000         0.000         0.000
  WSL2301                    298.178         0.000         0.000         0.000         0.000
  WSL2302                    303.578         0.000         0.000         0.000         0.000
  WSL2441                    280.674         0.000         0.000         0.000         0.000
  WSL2442                    203.876         0.000         0.000         0.000         0.000
  WSL2443                    202.348         0.000         0.000         0.000         0.000
  WSL2444                    199.053         0.000         0.000         0.000         0.000
  WSL2446                    197.028         0.000         0.000         0.000         0.000
  WSL2447                    193.349         0.000         0.000         0.000         0.000
  WSL2448                    189.399         0.000         0.000         0.000         0.000
  WSL2449                    130.479         0.000         0.000         0.000         0.000
  WSL2450                    127.892         0.000         0.000         0.000         0.000
  WSL2451                    126.592         0.000         0.000         0.000         0.000
  WSL2452                    124.861         0.000         0.000         0.000         0.000
  WSL2454                    120.427         0.000         0.000         0.000         0.000
  WSL2478                    118.526         0.000         0.000         0.000         0.000
  WSL2479                    103.686         0.000         0.000         0.000         0.000
  WSL2480                    100.395         0.000         0.000         0.000         0.000
  WSL2482                     96.198         0.000         0.000         0.000         0.000
  WSL2484                     84.296         0.000         0.000         0.000         0.000
  WSL2493                    206.606         0.000         0.000         0.000         0.000
  WSL2867                    467.016         0.000         0.000         0.000         0.000
  WSL2868                    471.198         0.000         0.000         0.000         0.000
  WSL348                     888.699         0.000         0.000         0.000         0.000
  WSL175                     895.419         0.000         0.000         0.000         0.000
  WSL1467                   1022.807         0.000         0.000         0.000         0.000
  WSL1473                   1031.338         0.000         0.000         0.000         0.000
  XRpipe                     907.952         0.000         0.000         0.000         0.000
  8                            0.000         0.000         0.000         0.000         0.000
  19                           0.000         0.000         0.000         0.000         0.000
  17                           0.000         0.000         0.000         0.000         0.000
  4                            0.000         0.000         0.000         0.000         0.000
  2                         1116.279         0.000         0.000         0.000         0.000
  XR-Pump-1                  134.499         0.000         0.000         0.000         0.000
  XR-Pump-3                  120.858         0.000         0.000         0.000         0.000
  XR-Pump-2                  125.085         0.000         0.000         0.000         0.000
  XR-Pump-4                  134.499         0.000         0.000         0.000         0.000
  CC-Pump-1                    3.668         0.000         0.000         0.000         0.000
  CC-Pump-2                   51.616         0.000         0.000         0.000         0.000
  JK-Pump-1                    4.921         0.000         0.000         0.000         0.000
  JK-Pump-2                   50.938         0.000         0.000         0.000         0.000
  

  Analysis begun on:  Mon Mar 18 14:39:21 2019
  Analysis ended on:  Mon Mar 18 14:39:22 2019
  Total elapsed time: 00:00:01