
  EPA STORM WATER MANAGEMENT MODEL - VERSION 5.1 (Build 5.2.0.dev5)
  --------------------------------------------------------------

  
  *********************************************************
  NOTE: The summary statistics displayed in this report are
  based on results found at every computational time step,  
  not just on results from each reporting time step.
  *********************************************************
  
  ****************
  Analysis Options
  ****************
  Flow Units ............... MLD
  Process Models:
    Rainfall/Runoff ........ YES
    RDII ................... NO
    Snowmelt ............... NO
    Groundwater ............ NO
    Flow Routing ........... YES
    Ponding Allowed ........ NO
    Water Quality .......... YES
  Infiltration Method ...... GREEN_AMPT
  Flow Routing Method ...... DYNWAVE
  Surcharge Method ......... EXTRAN
  Starting Date ............ 08/28/2015 08:00:00
  Ending Date .............. 08/28/2015 11:50:00
  Antecedent Dry Days ...... 4.0
  Report Time Step ......... 00:01:00
  Wet Time Step ............ 00:01:00
  Dry Time Step ............ 00:01:00
  Routing Time Step ........ 5.00 sec
  Variable Time Step ....... YES
  Maximum Trials ........... 8
  Number of Threads ........ 1
  Head Tolerance ........... 0.001500 m
  
  
  **************************        Volume         Depth
  Runoff Quantity Continuity     hectare-m            mm
  **************************     ---------       -------
  Total Precipitation ......         1.333        21.544
  Evaporation Loss .........         0.000         0.000
  Infiltration Loss ........         0.512         8.277
  Surface Runoff ...........         0.305         4.928
  Final Storage ............         0.516         8.341
  Continuity Error (%) .....        -0.006
  
  
  **************************           COD         NH3-N            TN            TP            SS
  Runoff Quality Continuity             kg            kg            kg            kg            kg
  **************************    ----------    ----------    ----------    ----------    ----------
  Initial Buildup ..........      2504.640         0.000         0.000         0.000         0.000
  Surface Buildup ..........        19.717         0.000         0.000         0.000         0.000
  Wet Deposition ...........         0.000         0.000         0.000         0.000         0.000
  Sweeping Removal .........         0.000         0.000         0.000         0.000         0.000
  Infiltration Loss ........       106.668         0.000         0.000         0.000         0.000
  BMP Removal ..............         0.000         0.000         0.000         0.000         0.000
  Surface Runoff ...........       558.910         0.000         0.000         0.000         0.000
  Remaining Buildup ........      1856.451         0.000         0.000         0.000         0.000
  Continuity Error (%) .....         0.092         0.000         0.000         0.000         0.000
  
  
  **************************        Volume        Volume
  Flow Routing Continuity        hectare-m      10^6 ltr
  **************************     ---------     ---------
  Dry Weather Inflow .......         0.000         0.000
  Wet Weather Inflow .......         0.304         3.040
  Groundwater Inflow .......         0.000         0.000
  RDII Inflow ..............         0.000         0.000
  External Inflow ..........         0.082         0.822
  External Outflow .........         0.331         3.307
  Flooding Loss ............         0.026         0.263
  Evaporation Loss .........         0.000         0.000
  Exfiltration Loss ........         0.000         0.000
  Initial Stored Volume ....         0.000         0.000
  Final Stored Volume ......         0.047         0.466
  Continuity Error (%) .....        -4.518
  
  
  **************************           COD         NH3-N            TN            TP            SS
  Quality Routing Continuity            kg            kg            kg            kg            kg
  **************************    ----------    ----------    ----------    ----------    ----------
  Dry Weather Inflow .......         0.000         0.000         0.000         0.000         0.000
  Wet Weather Inflow .......       557.546         0.000         0.000         0.000         0.000
  Groundwater Inflow .......         0.000         0.000         0.000         0.000         0.000
  RDII Inflow ..............         0.000         0.000         0.000         0.000         0.000
  External Inflow ..........       137.263         0.000         0.000         0.000         0.000
  External Outflow .........       524.722         0.000         0.000         0.000         0.000
  Flooding Loss ............        63.051         0.000         0.000         0.000         0.000
  Exfiltration Loss ........         0.000         0.000         0.000         0.000         0.000
  Mass Reacted .............         0.000         0.000         0.000         0.000         0.000
  Initial Stored Mass ......         0.000         0.000         0.000         0.000         0.000
  Final Stored Mass ........        70.257         0.000         0.000         0.000         0.000
  Continuity Error (%) .....         5.293         0.000         0.000         0.000         0.000
  
  
  *************************
  Highest Continuity Errors
  *************************
  Node WS02006230 (6.03%)
  Node WS02006229 (3.69%)
  Node WS02006242 (3.67%)
  Node WS02006240 (3.52%)
  Node WS02006243 (3.44%)
  
  
  ***************************
  Time-Step Critical Elements
  ***************************
  Link 8 (85.23%)
  Link WSL2448 (7.63%)
  Link 17 (5.84%)
  
  
  ********************************
  Highest Flow Instability Indexes
  ********************************
  Link WSL2302 (2)
  Link WSL2301 (2)
  Link WSL2297 (2)
  Link WSL2296 (2)
  Link WSL2298 (1)
  
  
  *************************
  Routing Time Step Summary
  *************************
  Minimum Time Step           :     0.30 sec
  Average Time Step           :     0.91 sec
  Maximum Time Step           :     5.00 sec
  Percent in Steady State     :    -0.00
  Average Iterations per Step :     2.11
  Percent Not Converging      :     1.33
  
  
  ***************************
  Subcatchment Runoff Summary
  ***************************
  
  ------------------------------------------------------------------------------------------------------------------------------
                            Total      Total      Total      Total     Imperv       Perv      Total       Total     Peak  Runoff
                           Precip      Runon       Evap      Infil     Runoff     Runoff     Runoff      Runoff   Runoff   Coeff
  Subcatchment                 mm         mm         mm         mm         mm         mm         mm    10^6 ltr      MLD
  ------------------------------------------------------------------------------------------------------------------------------
  1                         21.54      25.36       0.00       9.74      11.10      11.16      22.26        0.27     6.22   0.475
  2                         21.54       0.00       0.00       7.87       5.14       2.22       7.36        0.25     6.64   0.342
  3                         21.54       0.00       0.00       7.92       5.07       1.88       6.94        0.35     9.31   0.322
  35                        21.54       0.00       0.00       7.86       5.15       2.32       7.47        0.23     6.09   0.347
  36                        21.54      14.65       0.00       9.42       8.29       4.36      12.66        0.75    17.55   0.350
  40                        21.54       3.94       0.00       8.33       6.00       2.84       8.84        0.35     8.89   0.347
  41                        21.54       0.00       0.00       7.79       5.21       2.76       7.96        0.15     4.24   0.370
  42                        21.54       0.00       0.00       7.82       5.19       2.59       7.78        0.18     4.83   0.361
  43                        21.54       0.00       0.00       7.46       5.32       4.83      10.15        0.04     1.08   0.471
  44                        21.54     210.40       0.00      15.28      56.59     122.09     178.69        0.66    14.05   0.770
  45                        21.54       0.00       0.00       7.69       5.26       3.47       8.73        0.09     2.54   0.405
  46                        21.54      12.43       0.00       9.03       8.04       5.79      13.83        0.30     7.32   0.407
  47                        21.54       0.00       0.00       7.70       5.26       3.38       8.64        0.10     2.69   0.401
  48                        21.54       6.05       0.00       8.40       6.62       4.60      11.22        0.18     4.65   0.407
  55                        21.54       9.08       0.00       8.52       7.41       6.76      14.17        0.12     3.10   0.463
  56                        21.54      13.65       0.00       9.13       8.32       6.11      14.43        0.31     7.57   0.410
  57                        21.54       0.00       0.00       7.91       5.07       1.89       6.96        0.35     9.16   0.323
  59                        21.54       0.00       0.00       7.65       5.28       3.72       9.00        0.08     2.15   0.418
  60                        21.54      19.64       0.00       9.18       9.99      12.29      22.27        0.12     2.95   0.541
  61                        21.54       0.00       0.00       8.02       4.75       1.08       5.83        1.05    26.21   0.271
  64                        21.54       0.00       0.00       7.72       5.25       3.29       8.54        0.10     2.87   0.396
  
  
  ****************************
  Subcatchment Washoff Summary
  ****************************
  
  ------------------------------------------------------------------------------------------
                                 COD         NH3-N            TN            TP            SS
  Subcatchment                    kg            kg            kg            kg            kg
  ------------------------------------------------------------------------------------------
  1                           46.573         0.000         0.000         0.000         0.000
  2                            0.000         0.000         0.000         0.000         0.000
  3                            0.000         0.000         0.000         0.000         0.000
  35                          46.212         0.000         0.000         0.000         0.000
  36                         254.771         0.000         0.000         0.000         0.000
  40                          86.597         0.000         0.000         0.000         0.000
  41                          32.775         0.000         0.000         0.000         0.000
  42                          37.117         0.000         0.000         0.000         0.000
  43                           8.814         0.000         0.000         0.000         0.000
  44                         224.923         0.000         0.000         0.000         0.000
  45                          20.107         0.000         0.000         0.000         0.000
  46                          98.717         0.000         0.000         0.000         0.000
  47                          21.305         0.000         0.000         0.000         0.000
  48                          50.666         0.000         0.000         0.000         0.000
  55                          36.401         0.000         0.000         0.000         0.000
  56                         103.390         0.000         0.000         0.000         0.000
  57                          68.036         0.000         0.000         0.000         0.000
  59                          17.167         0.000         0.000         0.000         0.000
  60                          35.385         0.000         0.000         0.000         0.000
  61                         182.977         0.000         0.000         0.000         0.000
  64                          22.628         0.000         0.000         0.000         0.000
  ------------------------------------------------------------------------------------------
  System                    1394.563         0.000         0.000         0.000         0.000
  
  
  ******************
  Node Depth Summary
  ******************
  
  ---------------------------------------------------------------------------------
                                 Average  Maximum  Maximum  Time of Max    Reported
                                   Depth    Depth      HGL   Occurrence   Max Depth
  Node                 Type       Meters   Meters   Meters  days hr:min      Meters
  ---------------------------------------------------------------------------------
  WS01000070           JUNCTION     0.00     0.00     0.00     0  00:00        0.00
  WS01000323           JUNCTION     0.00     0.00     0.00     0  00:00        0.00
  WS01000533           JUNCTION     0.00     0.00     6.86     0  00:00        0.00
  WS01005172           JUNCTION     0.00     0.00     0.00     0  00:00        0.00
  WS01005181           JUNCTION     0.00     0.00     0.00     0  00:00        0.00
  WS01009841           JUNCTION     0.00     0.00     0.00     0  00:00        0.00
  WS02000078           JUNCTION     0.00     0.00     0.00     0  00:00        0.00
  WS02000112           JUNCTION     0.00     0.00     0.00     0  00:00        0.00
  WS02000136           JUNCTION     0.00     0.00     0.00     0  00:00        0.00
  WS02004053           JUNCTION     0.00     0.00     0.00     0  00:00        0.00
  WS02004401           JUNCTION     2.18     2.35     8.35     0  03:01        2.35
  WS02005192           JUNCTION     0.48     1.57     9.44     0  01:43        0.71
  WS02005193           JUNCTION     0.52     2.80    10.62     0  01:43        0.76
  WS02005196           JUNCTION     0.50     1.12     8.97     0  01:43        0.73
  WS02006109           JUNCTION     1.60     1.81     8.43     0  01:42        1.79
  WS02006110           JUNCTION     1.61     1.81     8.41     0  01:42        1.79
  WS02006111           JUNCTION     1.62     1.79     8.37     0  03:00        1.79
  WS02006112           JUNCTION     2.07     2.24     8.36     0  02:38        2.24
  WS02006113           JUNCTION     1.62     1.80     8.39     0  01:42        1.79
  WS02006115           JUNCTION     2.09     2.26     8.36     0  02:38        2.26
  WS02006116           JUNCTION     2.15     2.31     8.35     0  02:38        2.31
  WS02006183           JUNCTION     0.00     0.00     0.00     0  00:00        0.00
  WS02006228           JUNCTION     1.57     1.79     8.44     0  01:42        1.78
  WS02006229           JUNCTION     1.53     1.76     8.45     0  01:42        1.75
  WS02006230           JUNCTION     1.47     1.72     8.47     0  01:42        1.71
  WS02006231           JUNCTION     1.33     1.56     8.46     0  01:42        1.54
  WS02006232           JUNCTION     1.21     1.43     8.46     0  01:41        1.39
  WS02006234           JUNCTION     1.09     1.32     8.48     0  01:41        1.24
  WS02006235           JUNCTION     1.08     1.34     8.51     0  01:41        1.23
  WS02006238           JUNCTION     1.07     1.33     8.51     0  01:41        1.22
  WS02006239           JUNCTION     1.05     1.26     8.47     0  01:41        1.19
  WS02006242           JUNCTION     0.96     1.55     8.85     0  01:40        1.10
  WS02006240           JUNCTION     0.97     1.20     8.49     0  01:40        1.11
  WS02006243           JUNCTION     0.85     1.23     8.65     0  01:41        1.02
  WS02006245           JUNCTION     0.79     1.03     8.52     0  01:41        0.92
  WS02006247           JUNCTION     0.77     1.08     8.59     0  01:41        0.90
  WS02006248           JUNCTION     0.69     0.82     8.41     0  03:20        0.82
  WS02006249           JUNCTION     0.70     1.09     8.69     0  01:41        0.85
  WS02006251           JUNCTION     0.65     1.18     8.85     0  03:29        0.86
  WS02006253           JUNCTION     0.54     1.07     8.87     0  02:38        0.77
  WS02618401           JUNCTION     0.00     0.00     0.00     0  00:00        0.00
  WSA1649              JUNCTION     0.00     0.00     0.00     0  00:00        0.00
  outfall-5            OUTFALL      0.14     0.22     7.89     0  03:20        0.22
  outfall-14           OUTFALL      0.11     0.15     7.81     0  03:01        0.15
  outfall-16           OUTFALL      0.00     0.00     8.39     0  00:00        0.00
  CC-storage           STORAGE      2.52     5.63     8.81     0  02:15        5.63
  
  
  *******************
  Node Inflow Summary
  *******************
  
  -------------------------------------------------------------------------------------------------
                                  Maximum  Maximum                  Lateral       Total        Flow
                                  Lateral    Total  Time of Max      Inflow      Inflow     Balance
                                   Inflow   Inflow   Occurrence      Volume      Volume       Error
  Node                 Type           MLD      MLD  days hr:min    10^6 ltr    10^6 ltr     Percent
  -------------------------------------------------------------------------------------------------
  WS01000070           JUNCTION      0.00     0.00     0  00:00           0           0       0.000 ltr
  WS01000323           JUNCTION      0.00     0.00     0  00:00           0           0       0.000 ltr
  WS01000533           JUNCTION      0.00     0.00     0  00:00           0           0       0.000 ltr
  WS01005172           JUNCTION      0.00     0.00     0  00:00           0           0       0.000 ltr
  WS01005181           JUNCTION      0.00     0.00     0  00:00           0           0       0.000 ltr
  WS01009841           JUNCTION      0.00     0.00     0  00:00           0           0       0.000 ltr
  WS02000078           JUNCTION      0.00     0.00     0  00:00           0           0       0.000 ltr
  WS02000112           JUNCTION      0.00     0.00     0  00:00           0           0       0.000 ltr
  WS02000136           JUNCTION      0.00     0.00     0  00:00           0           0       0.000 ltr
  WS02004053           JUNCTION      0.00     0.00     0  00:00           0           0       0.000 ltr
  WS02004401           JUNCTION      0.05    22.87     0  03:01      0.0086        1.35       2.163
  WS02005192           JUNCTION      9.26     9.32     0  01:43       0.364       0.366       0.788
  WS02005193           JUNCTION      0.09    16.98     0  01:43       0.014       0.399       1.958
  WS02005196           JUNCTION      0.12    13.92     0  01:42      0.0183       0.386       1.899
  WS02006109           JUNCTION      0.08    17.40     0  03:26      0.0129        1.03       2.376
  WS02006110           JUNCTION      0.08    17.48     0  03:26      0.0126        1.03       2.426
  WS02006111           JUNCTION      0.24    22.40     0  03:01      0.0352        1.39       1.487
  WS02006112           JUNCTION      0.18    22.55     0  03:01      0.0263         1.4       2.366
  WS02006113           JUNCTION      9.46    22.20     0  03:01       0.379        1.38       1.728
  WS02006115           JUNCTION      0.08    22.63     0  03:01      0.0129        1.38       2.759
  WS02006116           JUNCTION      0.24    22.82     0  03:01      0.0347        1.38       2.496
  WS02006183           JUNCTION      0.00     0.00     0  00:00           0           0       0.000 ltr
  WS02006228           JUNCTION     14.20    17.32     0  03:26       0.686        1.06       1.689
  WS02006229           JUNCTION      0.13    11.10     0  01:42      0.0193       0.422       3.829
  WS02006230           JUNCTION      0.07    12.46     0  01:41      0.0111       0.431       6.422
  WS02006231           JUNCTION      0.13    12.35     0  01:41      0.0197       0.438       3.477
  WS02006232           JUNCTION      6.72    13.26     0  01:38       0.261       0.567       2.728
  WS02006234           JUNCTION      0.14    15.47     0  01:38      0.0208       0.457       3.085
  WS02006235           JUNCTION      0.14    17.16     0  01:38      0.0215       0.456       1.765
  WS02006238           JUNCTION      0.15    19.47     0  01:39      0.0226       0.456       2.209
  WS02006239           JUNCTION      0.11    23.84     0  01:39      0.0167        0.46       3.351
  WS02006242           JUNCTION      0.08    31.27     0  01:40      0.0124       0.481       3.806
  WS02006240           JUNCTION      0.06    28.32     0  01:40     0.00952       0.467       3.643
  WS02006243           JUNCTION      0.17    33.60     0  01:40      0.0259       0.497       3.562
  WS02006245           JUNCTION      0.07    35.16     0  01:41      0.0109       0.494       2.671
  WS02006247           JUNCTION      6.35    36.62     0  01:41       0.292       0.706       1.623
  WS02006248           JUNCTION      0.12    44.48     0  03:20      0.0185        2.21       0.489
  WS02006249           JUNCTION      0.19    40.91     0  02:37      0.0275         1.8       0.816
  WS02006251           JUNCTION      3.16    40.75     0  02:37       0.127        1.78       0.846
  WS02006253           JUNCTION      0.11    39.33     0  02:37      0.0166        1.67       0.470
  WS02618401           JUNCTION      0.00     0.00     0  00:00           0           0       0.000 ltr
  WSA1649              JUNCTION      0.00     0.00     0  00:00           0           0       0.000 ltr
  outfall-5            OUTFALL       0.00    44.50     0  03:20           0        1.99       0.000
  outfall-14           OUTFALL       0.00    22.87     0  03:01           0        1.32       0.000
  outfall-16           OUTFALL       0.00     0.00     0  00:00           0           0       0.000 ltr
  CC-storage           STORAGE      27.67    27.67     0  03:01        1.32        1.32     -13.600
  
  
  **********************
  Node Surcharge Summary
  **********************
  
  Surcharging occurs when water rises above the top of the highest conduit.
  ---------------------------------------------------------------------
                                               Max. Height   Min. Depth
                                   Hours       Above Crown    Below Rim
  Node                 Type      Surcharged         Meters       Meters
  ---------------------------------------------------------------------
  WS01000070           JUNCTION        3.83          0.000        0.000
  WS01000323           JUNCTION        3.83          0.000        0.000
  WS01000533           JUNCTION        3.83          0.000        2.147
  WS01005172           JUNCTION        3.83          0.000        0.000
  WS01005181           JUNCTION        3.83          0.000        0.000
  WS01009841           JUNCTION        3.83          0.000        0.000
  WS02000078           JUNCTION        3.83          0.000        0.000
  WS02000112           JUNCTION        3.83          0.000        0.000
  WS02000136           JUNCTION        3.83          0.000        0.000
  WS02004053           JUNCTION        3.83          0.000        0.000
  WS02005192           JUNCTION        0.43          0.973        1.846
  WS02005193           JUNCTION        0.53          2.198        0.419
  WS02005196           JUNCTION        0.47          0.519        2.187
  WS02006109           JUNCTION        2.21          1.008        0.830
  WS02006110           JUNCTION        2.21          1.007        0.838
  WS02006111           JUNCTION        2.21          0.991        0.886
  WS02006112           JUNCTION        2.43          1.243        0.440
  WS02006113           JUNCTION        2.21          0.998        0.935
  WS02006115           JUNCTION        2.45          1.259        1.040
  WS02006116           JUNCTION        2.53          1.315        1.035
  WS02006183           JUNCTION        3.83          0.000        0.000
  WS02006228           JUNCTION        2.20          0.991        1.240
  WS02006229           JUNCTION        2.20          0.960        1.494
  WS02006231           JUNCTION        2.19          0.859        0.684
  WS02006232           JUNCTION        2.18          0.728        0.761
  WS02006234           JUNCTION        2.17          0.623        0.634
  WS02006235           JUNCTION        2.17          0.643        0.651
  WS02006238           JUNCTION        2.17          0.632        0.802
  WS02006239           JUNCTION        2.16          0.562        0.767
  WS02006242           JUNCTION        2.16          0.849        0.000
  WS02006240           JUNCTION        2.16          0.498        0.905
  WS02006243           JUNCTION        2.15          0.530        0.250
  WS02006245           JUNCTION        2.15          0.334        0.521
  WS02006247           JUNCTION        2.14          0.375        0.385
  WS02006249           JUNCTION        1.57          0.388        0.000
  WS02006251           JUNCTION        0.83          0.479        1.031
  WS02006253           JUNCTION        0.37          0.368        2.086
  WS02618401           JUNCTION        3.83          0.000        0.000
  WSA1649              JUNCTION        3.83          0.000        0.000
  
  
  *********************
  Node Flooding Summary
  *********************
  
  Flooding refers to all water that overflows a node, whether it ponds or not.
  --------------------------------------------------------------------------
                                                             Total   Maximum
                                 Maximum   Time of Max       Flood    Ponded
                        Hours       Rate    Occurrence      Volume     Depth
  Node                 Flooded       MLD   days hr:min    10^6 ltr    Meters
  --------------------------------------------------------------------------
  WS02006242              0.01     12.38      0  01:40       0.000     0.000
  WS02006249              0.01     10.74      0  01:41       0.000     0.000
  CC-storage              0.39     27.66      0  03:01       0.263     0.000
  
  
  **********************
  Storage Volume Summary
  **********************
  
  --------------------------------------------------------------------------------------------------
                         Average     Avg  Evap Exfil       Maximum     Max    Time of Max    Maximum
                          Volume    Pcnt  Pcnt  Pcnt        Volume    Pcnt     Occurrence    Outflow
  Storage Unit           1000 m3    Full  Loss  Loss       1000 m3    Full    days hr:min        MLD
  --------------------------------------------------------------------------------------------------
  CC-storage               0.071      45     0     0         0.159     100       0  02:15      34.56
  
  
  ***********************
  Outfall Loading Summary
  ***********************
  
  ---------------------------------------------------------------------------------------------------------------------------------
                         Flow       Avg       Max       Total         Total         Total         Total         Total         Total
                         Freq      Flow      Flow      Volume           COD         NH3-N            TN            TP            SS
  Outfall Node           Pcnt       MLD       MLD    10^6 ltr            kg            kg            kg            kg            kg
  ---------------------------------------------------------------------------------------------------------------------------------
  outfall-5             91.14     23.68     44.50       1.990       286.788         0.000         0.000         0.000         0.000
  outfall-14            91.17     15.46     22.87       1.317       237.956         0.000         0.000         0.000         0.000
  outfall-16             0.00      0.00      0.00       0.000         0.000         0.000         0.000         0.000         0.000
  ---------------------------------------------------------------------------------------------------------------------------------
  System                60.77     39.13     64.75       3.307       524.744         0.000         0.000         0.000         0.000
  
  
  ********************
  Link Flow Summary
  ********************
  
  -----------------------------------------------------------------------------
                                 Maximum  Time of Max   Maximum    Max/    Max/
                                  |Flow|   Occurrence   |Veloc|    Full    Full
  Link                 Type          MLD  days hr:min     m/sec    Flow   Depth
  -----------------------------------------------------------------------------
  WSL2038              CONDUIT      9.24     0  03:01      0.45    0.46    1.00
  WSL2039              CONDUIT     14.31     0  01:42      0.66    0.74    1.00
  WSL2041              CONDUIT     13.80     0  01:42      0.66    0.68    1.00
  WSL2294              CONDUIT     17.40     0  03:26      0.43    0.58    1.00
  WSL2295              CONDUIT     17.48     0  03:26      0.50    0.79    1.00
  WSL2296              CONDUIT     22.40     0  03:01      0.63    0.13    1.00
  WSL2297              CONDUIT     22.55     0  03:01      0.34    0.43    1.00
  WSL2298              CONDUIT     22.20     0  03:01      0.87    1.02    1.00
  WSL2301              CONDUIT     22.63     0  03:01      0.33    0.21    1.00
  WSL2302              CONDUIT     22.82     0  03:01      0.34    0.28    1.00
  WSL2441              CONDUIT     17.32     0  03:26      0.44    0.44    1.00
  WSL2442              CONDUIT     10.97     0  01:42      0.63    0.28    1.00
  WSL2443              CONDUIT     12.39     0  01:41      0.73    0.19    1.00
  WSL2444              CONDUIT     12.22     0  01:41      0.90    0.19    1.00
  WSL2446              CONDUIT     12.14     0  01:38      0.85    0.21    1.00
  WSL2447              CONDUIT     15.33     0  01:38      0.81    0.79    1.00
  WSL2448              CONDUIT     17.01     0  01:38      0.87    0.48    1.00
  WSL2449              CONDUIT     19.32     0  01:39      0.94    0.67    1.00
  WSL2450              CONDUIT     23.73     0  01:39      1.11    0.49    1.00
  WSL2451              CONDUIT     28.26     0  01:40      1.18    1.84    1.00
  WSL2452              CONDUIT     31.19     0  01:40      1.28    0.60    1.00
  WSL2454              CONDUIT     33.42     0  01:40      1.46    0.78    1.00
  WSL2478              CONDUIT     35.09     0  01:41      1.41    1.24    1.00
  WSL2479              CONDUIT     35.78     0  01:41      1.41    0.68    1.00
  WSL2480              CONDUIT     40.91     0  02:37      1.42    1.89    1.00
  WSL2482              CONDUIT     40.75     0  02:37      1.36    1.06    1.00
  WSL2484              CONDUIT     39.33     0  02:37      1.51    0.55    1.00
  WSL2493              CONDUIT     11.12     0  01:42      0.51    0.19    1.00
  8                    CONDUIT     44.50     0  03:20      7.26    0.59    0.55
  19                   CONDUIT      0.00     0  00:00      0.00    0.00    0.00
  17                   CONDUIT     22.87     0  03:01      6.18    0.30    0.37
  CC-Pump-1            PUMP        17.28     0  02:30              1.00
  CC-Pump-2            PUMP        17.28     0  02:30              1.00
  
  
  ***************************
  Flow Classification Summary
  ***************************
  
  -------------------------------------------------------------------------------------
                      Adjusted    ---------- Fraction of Time in Flow Class ---------- 
                       /Actual         Up    Down  Sub   Sup   Up    Down  Norm  Inlet 
  Conduit               Length    Dry  Dry   Dry   Crit  Crit  Crit  Crit  Ltd   Ctrl  
  -------------------------------------------------------------------------------------
  WSL2038                 1.00   0.00  0.00  0.00  1.00  0.00  0.00  0.00  0.01  0.00
  WSL2039                 1.00   0.00  0.00  0.00  1.00  0.00  0.00  0.00  0.00  0.00
  WSL2041                 1.00   0.00  0.00  0.00  1.00  0.00  0.00  0.00  0.31  0.00
  WSL2294                 1.00   0.00  0.00  0.00  1.00  0.00  0.00  0.00  0.00  0.00
  WSL2295                 1.00   0.00  0.00  0.00  1.00  0.00  0.00  0.00  0.00  0.00
  WSL2296                 1.00   0.00  0.00  0.00  1.00  0.00  0.00  0.00  0.17  0.00
  WSL2297                 1.00   0.00  0.00  0.00  1.00  0.00  0.00  0.00  0.00  0.00
  WSL2298                 1.00   0.00  0.00  0.00  0.98  0.02  0.00  0.00  0.00  0.00
  WSL2301                 1.00   0.00  0.00  0.00  1.00  0.00  0.00  0.00  0.04  0.00
  WSL2302                 1.00   0.00  0.00  0.00  1.00  0.00  0.00  0.00  0.01  0.00
  WSL2441                 1.00   0.00  0.00  0.00  1.00  0.00  0.00  0.00  0.00  0.00
  WSL2442                 1.00   0.00  0.00  0.00  1.00  0.00  0.00  0.00  0.17  0.00
  WSL2443                 1.00   0.00  0.00  0.00  1.00  0.00  0.00  0.00  0.31  0.00
  WSL2444                 1.00   0.00  0.00  0.00  0.94  0.06  0.00  0.00  0.23  0.00
  WSL2446                 1.00   0.00  0.00  0.00  0.94  0.06  0.00  0.00  0.03  0.00
  WSL2447                 1.00   0.00  0.00  0.00  1.00  0.00  0.00  0.00  0.00  0.00
  WSL2448                 1.00   0.00  0.00  0.00  1.00  0.00  0.00  0.00  0.00  0.00
  WSL2449                 1.00   0.00  0.00  0.00  1.00  0.00  0.00  0.00  0.02  0.00
  WSL2450                 1.00   0.00  0.00  0.00  1.00  0.00  0.00  0.00  0.41  0.00
  WSL2451                 1.00   0.00  0.00  0.00  1.00  0.00  0.00  0.00  0.00  0.00
  WSL2452                 1.00   0.00  0.00  0.00  1.00  0.00  0.00  0.00  0.39  0.00
  WSL2454                 1.00   0.00  0.00  0.00  1.00  0.00  0.00  0.00  0.01  0.00
  WSL2478                 1.00   0.00  0.00  0.00  1.00  0.00  0.00  0.00  0.00  0.00
  WSL2479                 1.00   0.00  0.00  0.00  1.00  0.00  0.00  0.00  0.40  0.00
  WSL2480                 1.00   0.00  0.00  0.00  1.00  0.00  0.00  0.00  0.00  0.00
  WSL2482                 1.00   0.00  0.00  0.00  1.00  0.00  0.00  0.00  0.39  0.00
  WSL2484                 1.00   0.00  0.00  0.00  1.00  0.00  0.00  0.00  0.38  0.00
  WSL2493                 1.00   0.00  0.00  0.00  1.00  0.00  0.00  0.00  0.05  0.00
  8                       1.00   0.09  0.00  0.00  0.00  0.91  0.00  0.00  0.10  0.00
  19                      1.00   1.00  0.00  0.00  0.00  0.00  0.00  0.00  0.00  0.00
  17                      1.00   0.09  0.00  0.00  0.00  0.91  0.00  0.00  0.03  0.00
  
  
  *************************
  Conduit Surcharge Summary
  *************************
  
  ----------------------------------------------------------------------------
                                                           Hours        Hours 
                         --------- Hours Full --------   Above Full   Capacity
  Conduit                Both Ends  Upstream  Dnstream   Normal Flow   Limited
  ----------------------------------------------------------------------------
  WSL2038                     0.43      0.43      0.47      0.01         0.01
  WSL2039                     0.53      0.53      0.61      0.01         0.01
  WSL2041                     0.47      0.47      0.53      0.01         0.01
  WSL2294                     2.21      2.21      2.21      0.01         0.01
  WSL2295                     2.21      2.21      2.21      0.01         0.04
  WSL2296                     2.21      2.21      2.74      0.01         0.01
  WSL2297                     2.43      2.43      2.45      0.01         0.01
  WSL2298                     2.21      2.21      2.21      0.03         0.09
  WSL2301                     2.45      2.45      2.53      0.01         0.01
  WSL2302                     2.53      2.53      2.60      0.01         0.01
  WSL2441                     2.20      2.20      2.21      0.01         0.01
  WSL2442                     2.20      2.20      2.22      0.01         0.01
  WSL2443                     2.19      2.19      2.20      0.01         0.01
  WSL2444                     2.18      2.18      2.19      0.01         0.01
  WSL2446                     2.17      2.17      2.18      0.01         0.01
  WSL2447                     2.17      2.17      2.17      0.01         0.02
  WSL2448                     2.17      2.17      2.17      0.01         0.01
  WSL2449                     2.16      2.16      2.17      0.01         0.01
  WSL2450                     2.16      2.16      2.16      0.01         0.01
  WSL2451                     2.16      2.16      2.16      0.05         0.01
  WSL2452                     2.15      2.15      2.16      0.01         0.01
  WSL2454                     2.15      2.15      2.15      0.01         0.01
  WSL2478                     2.14      2.14      2.15      0.03         0.01
  WSL2479                     1.60      1.60      2.14      0.01         0.01
  WSL2480                     1.57      1.57      1.60      0.79         0.71
  WSL2482                     0.83      0.83      1.57      0.27         0.31
  WSL2484                     0.36      0.36      0.83      0.01         0.01
  WSL2493                     2.20      2.20      2.20      0.01         0.01
  
  
  ***************
  Pumping Summary
  ***************
  
  ---------------------------------------------------------------------------------------------------------
                                                  Min       Avg       Max     Total     Power    % Time Off
                        Percent   Number of      Flow      Flow      Flow    Volume     Usage    Pump Curve
  Pump                 Utilized   Start-Ups       MLD       MLD       MLD  10^6 ltr     Kw-hr    Low   High
  ---------------------------------------------------------------------------------------------------------
  CC-Pump-1               39.11           3      0.00     10.48     17.28     0.635      5.83    0.0    0.0
  CC-Pump-2               39.11           3      0.00     10.48     17.28     0.635      5.83    0.0    0.0
  
  
  ***************************
  Link Pollutant Load Summary
  ***************************
  
  ------------------------------------------------------------------------------------------
                                 COD         NH3-N            TN            TP            SS
  Link                            kg            kg            kg            kg            kg
  ------------------------------------------------------------------------------------------
  WSL2038                     70.977         0.000         0.000         0.000         0.000
  WSL2039                     76.764         0.000         0.000         0.000         0.000
  WSL2041                     74.299         0.000         0.000         0.000         0.000
  WSL2294                    257.123         0.000         0.000         0.000         0.000
  WSL2295                    252.979         0.000         0.000         0.000         0.000
  WSL2296                    254.247         0.000         0.000         0.000         0.000
  WSL2297                    250.269         0.000         0.000         0.000         0.000
  WSL2298                    251.711         0.000         0.000         0.000         0.000
  WSL2301                    245.973         0.000         0.000         0.000         0.000
  WSL2302                    243.308         0.000         0.000         0.000         0.000
  WSL2441                    260.859         0.000         0.000         0.000         0.000
  WSL2442                     44.401         0.000         0.000         0.000         0.000
  WSL2443                     40.035         0.000         0.000         0.000         0.000
  WSL2444                     35.889         0.000         0.000         0.000         0.000
  WSL2446                     37.494         0.000         0.000         0.000         0.000
  WSL2447                     41.884         0.000         0.000         0.000         0.000
  WSL2448                     43.221         0.000         0.000         0.000         0.000
  WSL2449                     45.507         0.000         0.000         0.000         0.000
  WSL2450                     49.373         0.000         0.000         0.000         0.000
  WSL2451                     53.600         0.000         0.000         0.000         0.000
  WSL2452                     57.775         0.000         0.000         0.000         0.000
  WSL2454                     60.254         0.000         0.000         0.000         0.000
  WSL2478                     62.954         0.000         0.000         0.000         0.000
  WSL2479                     89.939         0.000         0.000         0.000         0.000
  WSL2480                    253.913         0.000         0.000         0.000         0.000
  WSL2482                    250.349         0.000         0.000         0.000         0.000
  WSL2484                    212.250         0.000         0.000         0.000         0.000
  WSL2493                     52.754         0.000         0.000         0.000         0.000
  8                          286.788         0.000         0.000         0.000         0.000
  19                           0.000         0.000         0.000         0.000         0.000
  17                         237.956         0.000         0.000         0.000         0.000
  CC-Pump-1                   67.217         0.000         0.000         0.000         0.000
  CC-Pump-2                   67.217         0.000         0.000         0.000         0.000
  

  Analysis begun on:  Mon Aug 19 10:42:02 2019
  Analysis ended on:  Mon Aug 19 10:42:03 2019
  Total elapsed time: 00:00:01