
  EPA STORM WATER MANAGEMENT MODEL - VERSION 5.1 (Build 5.2.0.dev5)
  --------------------------------------------------------------

  
  *********************************************************
  NOTE: The summary statistics displayed in this report are
  based on results found at every computational time step,  
  not just on results from each reporting time step.
  *********************************************************
  
  ****************
  Analysis Options
  ****************
  Flow Units ............... MLD
  Process Models:
    Rainfall/Runoff ........ YES
    RDII ................... NO
    Snowmelt ............... NO
    Groundwater ............ NO
    Flow Routing ........... YES
    Ponding Allowed ........ NO
    Water Quality .......... YES
  Infiltration Method ...... GREEN_AMPT
  Flow Routing Method ...... DYNWAVE
  Surcharge Method ......... EXTRAN
  Starting Date ............ 08/28/2015 08:00:00
  Ending Date .............. 08/28/2015 11:50:00
  Antecedent Dry Days ...... 4.0
  Report Time Step ......... 00:01:00
  Wet Time Step ............ 00:01:00
  Dry Time Step ............ 00:01:00
  Routing Time Step ........ 5.00 sec
  Variable Time Step ....... YES
  Maximum Trials ........... 8
  Number of Threads ........ 1
  Head Tolerance ........... 0.001500 m
  
  
  **************************        Volume         Depth
  Runoff Quantity Continuity     hectare-m            mm
  **************************     ---------       -------
  Total Precipitation ......         2.149        34.738
  Evaporation Loss .........         0.000         0.000
  Infiltration Loss ........         0.665        10.746
  Surface Runoff ...........         0.665        10.752
  Final Storage ............         0.819        13.241
  Continuity Error (%) .....        -0.004
  
  
  **************************           COD         NH3-N            TN            TP            SS
  Runoff Quality Continuity             kg            kg            kg            kg            kg
  **************************    ----------    ----------    ----------    ----------    ----------
  Initial Buildup ..........      2504.640         0.000         0.000         0.000         0.000
  Surface Buildup ..........        19.297         0.000         0.000         0.000         0.000
  Wet Deposition ...........         0.000         0.000         0.000         0.000         0.000
  Sweeping Removal .........         0.000         0.000         0.000         0.000         0.000
  Infiltration Loss ........       193.186         0.000         0.000         0.000         0.000
  BMP Removal ..............         0.000         0.000         0.000         0.000         0.000
  Surface Runoff ...........      1314.296         0.000         0.000         0.000         0.000
  Remaining Buildup ........      1016.809         0.000         0.000         0.000         0.000
  Continuity Error (%) .....        -0.014         0.000         0.000         0.000         0.000
  
  
  **************************        Volume        Volume
  Flow Routing Continuity        hectare-m      10^6 ltr
  **************************     ---------     ---------
  Dry Weather Inflow .......         0.000         0.000
  Wet Weather Inflow .......         0.664         6.636
  Groundwater Inflow .......         0.000         0.000
  RDII Inflow ..............         0.000         0.000
  External Inflow ..........         0.082         0.822
  External Outflow .........         0.676         6.762
  Flooding Loss ............         0.015         0.147
  Evaporation Loss .........         0.000         0.000
  Exfiltration Loss ........         0.000         0.000
  Initial Stored Volume ....         0.000         0.000
  Final Stored Volume ......         0.062         0.624
  Continuity Error (%) .....        -0.996
  
  
  **************************           COD         NH3-N            TN            TP            SS
  Quality Routing Continuity            kg            kg            kg            kg            kg
  **************************    ----------    ----------    ----------    ----------    ----------
  Dry Weather Inflow .......         0.000         0.000         0.000         0.000         0.000
  Wet Weather Inflow .......      1312.746         0.000         0.000         0.000         0.000
  Groundwater Inflow .......         0.000         0.000         0.000         0.000         0.000
  RDII Inflow ..............         0.000         0.000         0.000         0.000         0.000
  External Inflow ..........       137.263         0.000         0.000         0.000         0.000
  External Outflow .........      1341.488         0.000         0.000         0.000         0.000
  Flooding Loss ............        25.437         0.000         0.000         0.000         0.000
  Exfiltration Loss ........         0.000         0.000         0.000         0.000         0.000
  Mass Reacted .............         0.000         0.000         0.000         0.000         0.000
  Initial Stored Mass ......         0.000         0.000         0.000         0.000         0.000
  Final Stored Mass ........        62.659         0.000         0.000         0.000         0.000
  Continuity Error (%) .....         1.409         0.000         0.000         0.000         0.000
  
  
  *************************
  Highest Continuity Errors
  *************************
  Node WS02006230 (7.28%)
  Node WS02006229 (4.48%)
  Node WS02006231 (3.90%)
  Node WS02006242 (2.32%)
  Node WS02006243 (2.26%)
  
  
  ***************************
  Time-Step Critical Elements
  ***************************
  Link 8 (88.31%)
  Link WSL2448 (6.12%)
  Link 17 (4.44%)
  
  
  ********************************
  Highest Flow Instability Indexes
  ********************************
  Link WSL2302 (2)
  Link WSL2301 (1)
  Link WSL2297 (1)
  Link WSL2296 (1)
  
  
  *************************
  Routing Time Step Summary
  *************************
  Minimum Time Step           :     0.31 sec
  Average Time Step           :     0.81 sec
  Maximum Time Step           :     5.00 sec
  Percent in Steady State     :    -0.00
  Average Iterations per Step :     2.07
  Percent Not Converging      :     0.80
  
  
  ***************************
  Subcatchment Runoff Summary
  ***************************
  
  ------------------------------------------------------------------------------------------------------------------------------
                            Total      Total      Total      Total     Imperv       Perv      Total       Total     Peak  Runoff
                           Precip      Runon       Evap      Infil     Runoff     Runoff     Runoff      Runoff   Runoff   Coeff
  Subcatchment                 mm         mm         mm         mm         mm         mm         mm    10^6 ltr      MLD
  ------------------------------------------------------------------------------------------------------------------------------
  1                         34.74      59.65       0.00      13.06      22.68      34.67      57.35        0.69    10.90   0.608
  2                         34.74       0.00       0.00      10.05       8.46       6.61      15.07        0.51     8.77   0.434
  3                         34.74       0.00       0.00      10.18       8.40       5.71      14.11        0.72    12.43   0.406
  35                        34.74       0.00       0.00      10.02       8.47       6.85      15.32        0.46     8.02   0.441
  36                        34.74      32.04       0.00      12.73      15.70      14.30      30.00        1.77    26.08   0.449
  40                        34.74       8.13       0.00      10.83      10.31       8.65      18.96        0.74    11.93   0.442
  41                        34.74       0.00       0.00       9.86       8.52       7.91      16.43        0.32     5.52   0.473
  42                        34.74       0.00       0.00       9.92       8.51       7.52      16.02        0.37     6.32   0.461
  43                        34.74       0.00       0.00       9.08       8.63      12.16      20.79        0.07     1.37   0.598
  44                        34.74     495.85       0.00      20.29     130.53     322.44     452.97        1.68    27.02   0.854
  45                        34.74       0.00       0.00       9.59       8.57       9.50      18.07        0.19     3.26   0.520
  46                        34.74      26.85       0.00      11.89      14.81      17.52      32.33        0.69    10.30   0.525
  47                        34.74       0.00       0.00       9.63       8.57       9.31      17.88        0.20     3.47   0.515
  48                        34.74      12.53       0.00      10.78      11.49      13.21      24.71        0.39     6.17   0.523
  55                        34.74      18.79       0.00      10.84      13.08      18.53      31.60        0.26     4.14   0.590
  56                        34.74      29.27       0.00      12.04      15.39      18.51      33.90        0.73    10.86   0.530
  57                        34.74       0.00       0.00      10.17       8.40       5.75      14.15        0.71    12.22   0.407
  59                        34.74       0.00       0.00       9.50       8.59      10.02      18.61        0.16     2.76   0.536
  60                        34.74      40.68       0.00      11.68      18.45      32.16      50.61        0.26     4.19   0.671
  61                        34.74       0.00       0.00      10.47       8.09       3.49      11.58        2.08    36.03   0.333
  64                        34.74       0.00       0.00       9.66       8.56       9.11      17.67        0.21     3.70   0.509
  
  
  ****************************
  Subcatchment Washoff Summary
  ****************************
  
  ------------------------------------------------------------------------------------------
                                 COD         NH3-N            TN            TP            SS
  Subcatchment                    kg            kg            kg            kg            kg
  ------------------------------------------------------------------------------------------
  1                          117.537         0.000         0.000         0.000         0.000
  2                            0.000         0.000         0.000         0.000         0.000
  3                            0.000         0.000         0.000         0.000         0.000
  35                         108.347         0.000         0.000         0.000         0.000
  36                         497.840         0.000         0.000         0.000         0.000
  40                         193.098         0.000         0.000         0.000         0.000
  41                          73.290         0.000         0.000         0.000         0.000
  42                          84.508         0.000         0.000         0.000         0.000
  43                          15.609         0.000         0.000         0.000         0.000
  44                         481.171         0.000         0.000         0.000         0.000
  45                          41.518         0.000         0.000         0.000         0.000
  46                         176.814         0.000         0.000         0.000         0.000
  47                          44.439         0.000         0.000         0.000         0.000
  48                          95.734         0.000         0.000         0.000         0.000
  55                          60.729         0.000         0.000         0.000         0.000
  56                         180.834         0.000         0.000         0.000         0.000
  57                         166.752         0.000         0.000         0.000         0.000
  59                          34.455         0.000         0.000         0.000         0.000
  60                          59.689         0.000         0.000         0.000         0.000
  61                         488.108         0.000         0.000         0.000         0.000
  64                          47.691         0.000         0.000         0.000         0.000
  ------------------------------------------------------------------------------------------
  System                    2968.164         0.000         0.000         0.000         0.000
  
  
  ******************
  Node Depth Summary
  ******************
  
  ---------------------------------------------------------------------------------
                                 Average  Maximum  Maximum  Time of Max    Reported
                                   Depth    Depth      HGL   Occurrence   Max Depth
  Node                 Type       Meters   Meters   Meters  days hr:min      Meters
  ---------------------------------------------------------------------------------
  WS01000070           JUNCTION     0.00     0.00     0.00     0  00:00        0.00
  WS01000323           JUNCTION     0.00     0.00     0.00     0  00:00        0.00
  WS01000533           JUNCTION     0.00     0.00     6.86     0  00:00        0.00
  WS01005172           JUNCTION     0.00     0.00     0.00     0  00:00        0.00
  WS01005181           JUNCTION     0.00     0.00     0.00     0  00:00        0.00
  WS01009841           JUNCTION     0.00     0.00     0.00     0  00:00        0.00
  WS02000078           JUNCTION     0.00     0.00     0.00     0  00:00        0.00
  WS02000112           JUNCTION     0.00     0.00     0.00     0  00:00        0.00
  WS02000136           JUNCTION     0.00     0.00     0.00     0  00:00        0.00
  WS02004053           JUNCTION     0.00     0.00     0.00     0  00:00        0.00
  WS02004401           JUNCTION     2.25     2.40     8.40     0  02:36        2.40
  WS02005192           JUNCTION     0.63     2.34    10.21     0  01:33        0.88
  WS02005193           JUNCTION     0.68     2.46    10.28     0  01:33        0.91
  WS02005196           JUNCTION     0.65     1.13     8.98     0  01:33        0.89
  WS02006109           JUNCTION     1.70     1.88     8.50     0  02:39        1.88
  WS02006110           JUNCTION     1.71     1.93     8.53     0  01:31        1.89
  WS02006111           JUNCTION     1.70     1.92     8.50     0  01:31        1.87
  WS02006112           JUNCTION     2.14     2.34     8.46     0  01:31        2.31
  WS02006113           JUNCTION     1.71     1.93     8.52     0  01:31        1.89
  WS02006115           JUNCTION     2.15     2.31     8.41     0  02:35        2.31
  WS02006116           JUNCTION     2.21     2.37     8.41     0  02:36        2.37
  WS02006183           JUNCTION     0.00     0.00     0.00     0  00:00        0.00
  WS02006228           JUNCTION     1.67     1.87     8.52     0  02:41        1.87
  WS02006229           JUNCTION     1.63     1.83     8.52     0  02:41        1.83
  WS02006230           JUNCTION     1.58     1.77     8.52     0  02:41        1.77
  WS02006231           JUNCTION     1.43     1.62     8.52     0  02:41        1.62
  WS02006232           JUNCTION     1.31     1.49     8.52     0  02:41        1.49
  WS02006234           JUNCTION     1.19     1.36     8.52     0  02:41        1.36
  WS02006235           JUNCTION     1.18     1.37     8.54     0  01:30        1.34
  WS02006238           JUNCTION     1.17     1.43     8.61     0  01:30        1.33
  WS02006239           JUNCTION     1.14     1.31     8.52     0  01:31        1.30
  WS02006242           JUNCTION     1.05     1.55     8.85     0  01:31        1.21
  WS02006240           JUNCTION     1.06     1.26     8.55     0  01:31        1.22
  WS02006243           JUNCTION     0.94     1.28     8.70     0  01:31        1.08
  WS02006245           JUNCTION     0.87     1.10     8.59     0  01:31        1.01
  WS02006247           JUNCTION     0.85     1.15     8.66     0  01:31        0.99
  WS02006248           JUNCTION     0.77     0.90     8.49     0  02:38        0.90
  WS02006249           JUNCTION     0.79     1.09     8.69     0  01:31        0.94
  WS02006251           JUNCTION     0.79     1.74     9.41     0  01:33        1.00
  WS02006253           JUNCTION     0.69     0.92     8.72     0  02:26        0.92
  WS02618401           JUNCTION     0.00     0.00     0.00     0  00:00        0.00
  WSA1649              JUNCTION     0.00     0.00     0.00     0  00:00        0.00
  outfall-5            OUTFALL      0.21     0.30     7.96     0  02:38        0.30
  outfall-14           OUTFALL      0.15     0.20     7.86     0  02:36        0.20
  outfall-16           OUTFALL      0.00     0.00     8.39     0  00:00        0.00
  CC-storage           STORAGE      3.56     5.63     8.81     0  01:55        5.63
  
  
  *******************
  Node Inflow Summary
  *******************
  
  -------------------------------------------------------------------------------------------------
                                  Maximum  Maximum                  Lateral       Total        Flow
                                  Lateral    Total  Time of Max      Inflow      Inflow     Balance
                                   Inflow   Inflow   Occurrence      Volume      Volume       Error
  Node                 Type           MLD      MLD  days hr:min    10^6 ltr    10^6 ltr     Percent
  -------------------------------------------------------------------------------------------------
  WS01000070           JUNCTION      0.00     0.00     0  00:00           0           0       0.000 ltr
  WS01000323           JUNCTION      0.00     0.00     0  00:00           0           0       0.000 ltr
  WS01000533           JUNCTION      0.00     0.00     0  00:00           0           0       0.000 ltr
  WS01005172           JUNCTION      0.00     0.00     0  00:00           0           0       0.000 ltr
  WS01005181           JUNCTION      0.00     0.00     0  00:00           0           0       0.000 ltr
  WS01009841           JUNCTION      0.00     0.00     0  00:00           0           0       0.000 ltr
  WS02000078           JUNCTION      0.00     0.00     0  00:00           0           0       0.000 ltr
  WS02000112           JUNCTION      0.00     0.00     0  00:00           0           0       0.000 ltr
  WS02000136           JUNCTION      0.00     0.00     0  00:00           0           0       0.000 ltr
  WS02004053           JUNCTION      0.00     0.00     0  00:00           0           0       0.000 ltr
  WS02004401           JUNCTION      0.05    38.07     0  02:36      0.0086        2.56       1.134
  WS02005192           JUNCTION     12.32    12.32     0  02:22       0.723       0.724       0.382
  WS02005193           JUNCTION      0.09    14.86     0  01:33       0.014       0.755       1.018
  WS02005196           JUNCTION      0.12    12.92     0  01:33      0.0183       0.743       0.948
  WS02006109           JUNCTION      0.08    26.88     0  03:00      0.0129        1.88       1.292
  WS02006110           JUNCTION      0.08    26.95     0  03:00      0.0126        1.87       1.317
  WS02006111           JUNCTION      0.24    37.57     0  02:36      0.0352         2.6       0.789
  WS02006112           JUNCTION      0.18    37.73     0  02:36      0.0263        2.61       1.240
  WS02006113           JUNCTION     12.58    37.37     0  02:36       0.744        2.59       0.910
  WS02006115           JUNCTION      0.08    37.81     0  02:36      0.0129        2.59       1.436
  WS02006116           JUNCTION      0.24    38.02     0  02:36      0.0347        2.59       1.294
  WS02006183           JUNCTION      0.00     0.00     0  00:00           0           0       0.000 ltr
  WS02006228           JUNCTION     27.17    27.17     0  03:01         1.7        1.96       0.908
  WS02006229           JUNCTION      0.13    11.70     0  01:28      0.0193       0.348       4.688
  WS02006230           JUNCTION      0.07    13.69     0  01:29      0.0111       0.362       7.855
  WS02006231           JUNCTION      0.13    17.01     0  01:29      0.0197       0.372       4.062
  WS02006232           JUNCTION      8.85    21.96     0  01:29        0.52       0.776       1.905
  WS02006234           JUNCTION      0.14    23.38     0  01:29      0.0208       0.683       2.061
  WS02006235           JUNCTION      0.14    24.12     0  01:29      0.0215       0.691       1.124
  WS02006238           JUNCTION      0.15    26.69     0  01:30      0.0226       0.703       1.352
  WS02006239           JUNCTION      0.11    34.69     0  01:30      0.0167       0.717       2.012
  WS02006242           JUNCTION      0.08    36.55     0  01:30      0.0124       0.749       2.378
  WS02006240           JUNCTION      0.06    32.14     0  01:30     0.00952       0.729       2.126
  WS02006243           JUNCTION      0.17    35.95     0  01:31      0.0259       0.774       2.309
  WS02006245           JUNCTION      0.07    36.72     0  01:31      0.0109        0.78       1.551
  WS02006247           JUNCTION     11.04    38.29     0  01:31       0.716        1.47       0.785
  WS02006248           JUNCTION      0.12    68.54     0  02:38      0.0185        4.44       0.240
  WS02006249           JUNCTION      0.19    51.49     0  02:22      0.0275        3.19       0.453
  WS02006251           JUNCTION      4.20    51.32     0  02:22       0.271        3.18       0.465
  WS02006253           JUNCTION      0.11    47.18     0  02:22      0.0166        2.92       0.261
  WS02618401           JUNCTION      0.00     0.00     0  00:00           0           0       0.000 ltr
  WSA1649              JUNCTION      0.00     0.00     0  00:00           0           0       0.000 ltr
  outfall-5            OUTFALL       0.00    68.54     0  02:38           0        4.23       0.000
  outfall-14           OUTFALL       0.00    38.07     0  02:36           0        2.53       0.000
  outfall-16           OUTFALL       0.00     0.00     0  00:00           0           0       0.000 ltr
  CC-storage           STORAGE      37.65    37.65     0  02:24        2.36        2.36      -4.202
  
  
  **********************
  Node Surcharge Summary
  **********************
  
  Surcharging occurs when water rises above the top of the highest conduit.
  ---------------------------------------------------------------------
                                               Max. Height   Min. Depth
                                   Hours       Above Crown    Below Rim
  Node                 Type      Surcharged         Meters       Meters
  ---------------------------------------------------------------------
  WS01000070           JUNCTION        3.83          0.000        0.000
  WS01000323           JUNCTION        3.83          0.000        0.000
  WS01000533           JUNCTION        3.83          0.000        2.147
  WS01005172           JUNCTION        3.83          0.000        0.000
  WS01005181           JUNCTION        3.83          0.000        0.000
  WS01009841           JUNCTION        3.83          0.000        0.000
  WS02000078           JUNCTION        3.83          0.000        0.000
  WS02000112           JUNCTION        3.83          0.000        0.000
  WS02000136           JUNCTION        3.83          0.000        0.000
  WS02004053           JUNCTION        3.83          0.000        0.000
  WS02005192           JUNCTION        1.32          1.737        1.082
  WS02005193           JUNCTION        1.37          1.860        0.757
  WS02005196           JUNCTION        1.33          0.535        2.171
  WS02006109           JUNCTION        2.35          1.085        0.753
  WS02006110           JUNCTION        2.35          1.126        0.719
  WS02006111           JUNCTION        2.35          1.115        0.762
  WS02006112           JUNCTION        2.48          1.336        0.347
  WS02006113           JUNCTION        2.35          1.134        0.799
  WS02006115           JUNCTION        2.50          1.315        0.984
  WS02006116           JUNCTION        2.57          1.368        0.982
  WS02006183           JUNCTION        3.83          0.000        0.000
  WS02006228           JUNCTION        2.35          1.068        1.163
  WS02006229           JUNCTION        2.35          1.028        1.426
  WS02006231           JUNCTION        2.34          0.918        0.625
  WS02006232           JUNCTION        2.33          0.788        0.701
  WS02006234           JUNCTION        2.33          0.656        0.601
  WS02006235           JUNCTION        2.32          0.665        0.629
  WS02006238           JUNCTION        2.32          0.733        0.701
  WS02006239           JUNCTION        2.32          0.605        0.724
  WS02006242           JUNCTION        2.32          0.849        0.000
  WS02006240           JUNCTION        2.32          0.559        0.844
  WS02006243           JUNCTION        2.31          0.583        0.197
  WS02006245           JUNCTION        2.31          0.395        0.460
  WS02006247           JUNCTION        2.31          0.455        0.305
  WS02006249           JUNCTION        2.13          0.388        0.000
  WS02006251           JUNCTION        1.45          1.038        0.472
  WS02006253           JUNCTION        1.28          0.222        2.232
  WS02618401           JUNCTION        3.83          0.000        0.000
  WSA1649              JUNCTION        3.83          0.000        0.000
  
  
  *********************
  Node Flooding Summary
  *********************
  
  Flooding refers to all water that overflows a node, whether it ponds or not.
  --------------------------------------------------------------------------
                                                             Total   Maximum
                                 Maximum   Time of Max       Flood    Ponded
                        Hours       Rate    Occurrence      Volume     Depth
  Node                 Flooded       MLD   days hr:min    10^6 ltr    Meters
  --------------------------------------------------------------------------
  WS02006242              0.01     18.49      0  01:31       0.001     0.000
  WS02006249              0.01     18.20      0  01:31       0.000     0.000
  CC-storage              0.42     19.55      0  02:00       0.145     0.000
  
  
  **********************
  Storage Volume Summary
  **********************
  
  --------------------------------------------------------------------------------------------------
                         Average     Avg  Evap Exfil       Maximum     Max    Time of Max    Maximum
                          Volume    Pcnt  Pcnt  Pcnt        Volume    Pcnt     Occurrence    Outflow
  Storage Unit           1000 m3    Full  Loss  Loss       1000 m3    Full    days hr:min        MLD
  --------------------------------------------------------------------------------------------------
  CC-storage               0.100      63     0     0         0.159     100       0  01:55      34.56
  
  
  ***********************
  Outfall Loading Summary
  ***********************
  
  ---------------------------------------------------------------------------------------------------------------------------------
                         Flow       Avg       Max       Total         Total         Total         Total         Total         Total
                         Freq      Flow      Flow      Volume           COD         NH3-N            TN            TP            SS
  Outfall Node           Pcnt       MLD       MLD    10^6 ltr            kg            kg            kg            kg            kg
  ---------------------------------------------------------------------------------------------------------------------------------
  outfall-5             92.82     45.52     68.54       4.232       843.217         0.000         0.000         0.000         0.000
  outfall-14            92.82     27.01     38.07       2.530       498.293         0.000         0.000         0.000         0.000
  outfall-16             0.00      0.00      0.00       0.000         0.000         0.000         0.000         0.000         0.000
  ---------------------------------------------------------------------------------------------------------------------------------
  System                61.88     72.52    106.61       6.762      1341.509         0.000         0.000         0.000         0.000
  
  
  ********************
  Link Flow Summary
  ********************
  
  -----------------------------------------------------------------------------
                                 Maximum  Time of Max   Maximum    Max/    Max/
                                  |Flow|   Occurrence   |Veloc|    Full    Full
  Link                 Type          MLD  days hr:min     m/sec    Flow   Depth
  -----------------------------------------------------------------------------
  WSL2038              CONDUIT     12.32     0  02:22      0.50    0.61    1.00
  WSL2039              CONDUIT     13.34     0  01:32      0.71    0.69    1.00
  WSL2041              CONDUIT     12.80     0  01:33      0.60    0.63    1.00
  WSL2294              CONDUIT     26.88     0  03:00      0.62    0.90    1.00
  WSL2295              CONDUIT     26.95     0  03:00      0.62    1.21    1.00
  WSL2296              CONDUIT     37.57     0  02:36      0.87    0.21    1.00
  WSL2297              CONDUIT     37.73     0  02:36      0.56    0.72    1.00
  WSL2298              CONDUIT     37.37     0  02:36      0.87    1.72    1.00
  WSL2301              CONDUIT     37.81     0  02:36      0.56    0.35    1.00
  WSL2302              CONDUIT     38.02     0  02:36      0.56    0.47    1.00
  WSL2441              CONDUIT     26.81     0  03:00      0.62    0.69    1.00
  WSL2442              CONDUIT     11.57     0  01:28      0.63    0.30    1.00
  WSL2443              CONDUIT     13.61     0  01:29      0.73    0.21    1.00
  WSL2444              CONDUIT     16.88     0  01:29      0.95    0.27    1.00
  WSL2446              CONDUIT     20.12     0  01:29      1.05    0.35    1.00
  WSL2447              CONDUIT     23.24     0  01:29      1.28    1.20    1.00
  WSL2448              CONDUIT     23.98     0  01:29      1.20    0.67    1.00
  WSL2449              CONDUIT     26.27     0  01:30      1.20    0.92    1.00
  WSL2450              CONDUIT     30.74     0  01:30      1.27    0.64    1.00
  WSL2451              CONDUIT     32.08     0  01:30      1.28    2.09    1.00
  WSL2452              CONDUIT     36.47     0  01:30      1.33    0.70    1.00
  WSL2454              CONDUIT     35.77     0  01:31      1.48    0.83    1.00
  WSL2478              CONDUIT     36.65     0  01:31      1.43    1.29    1.00
  WSL2479              CONDUIT     36.96     0  01:31      1.41    0.70    1.00
  WSL2480              CONDUIT     51.49     0  02:22      1.55    2.38    1.00
  WSL2482              CONDUIT     51.33     0  02:22      1.54    1.34    1.00
  WSL2484              CONDUIT     47.18     0  02:22      1.51    0.66    1.00
  WSL2493              CONDUIT     11.29     0  01:32      0.51    0.19    1.00
  8                    CONDUIT     68.54     0  02:38      7.90    0.90    0.75
  19                   CONDUIT      0.00     0  00:00      0.00    0.00    0.00
  17                   CONDUIT     38.07     0  02:36      7.07    0.49    0.50
  CC-Pump-1            PUMP        17.28     0  02:10              1.00
  CC-Pump-2            PUMP        17.28     0  02:10              1.00
  
  
  ***************************
  Flow Classification Summary
  ***************************
  
  -------------------------------------------------------------------------------------
                      Adjusted    ---------- Fraction of Time in Flow Class ---------- 
                       /Actual         Up    Down  Sub   Sup   Up    Down  Norm  Inlet 
  Conduit               Length    Dry  Dry   Dry   Crit  Crit  Crit  Crit  Ltd   Ctrl  
  -------------------------------------------------------------------------------------
  WSL2038                 1.00   0.00  0.00  0.00  1.00  0.00  0.00  0.00  0.01  0.00
  WSL2039                 1.00   0.00  0.00  0.00  1.00  0.00  0.00  0.00  0.00  0.00
  WSL2041                 1.00   0.00  0.00  0.00  1.00  0.00  0.00  0.00  0.28  0.00
  WSL2294                 1.00   0.00  0.00  0.00  1.00  0.00  0.00  0.00  0.00  0.00
  WSL2295                 1.00   0.00  0.00  0.00  1.00  0.00  0.00  0.00  0.00  0.00
  WSL2296                 1.00   0.00  0.00  0.00  1.00  0.00  0.00  0.00  0.17  0.00
  WSL2297                 1.00   0.00  0.00  0.00  1.00  0.00  0.00  0.00  0.00  0.00
  WSL2298                 1.00   0.00  0.00  0.00  0.98  0.02  0.00  0.00  0.00  0.00
  WSL2301                 1.00   0.00  0.00  0.00  1.00  0.00  0.00  0.00  0.04  0.00
  WSL2302                 1.00   0.00  0.00  0.00  1.00  0.00  0.00  0.00  0.01  0.00
  WSL2441                 1.00   0.00  0.00  0.00  1.00  0.00  0.00  0.00  0.00  0.00
  WSL2442                 1.00   0.00  0.00  0.00  1.00  0.00  0.00  0.00  0.17  0.00
  WSL2443                 1.00   0.00  0.00  0.00  1.00  0.00  0.00  0.00  0.30  0.00
  WSL2444                 1.00   0.00  0.00  0.00  0.95  0.05  0.00  0.00  0.22  0.00
  WSL2446                 1.00   0.00  0.00  0.00  0.96  0.04  0.00  0.00  0.01  0.00
  WSL2447                 1.00   0.00  0.00  0.00  1.00  0.00  0.00  0.00  0.00  0.00
  WSL2448                 1.00   0.00  0.00  0.00  1.00  0.00  0.00  0.00  0.00  0.00
  WSL2449                 1.00   0.00  0.00  0.00  1.00  0.00  0.00  0.00  0.02  0.00
  WSL2450                 1.00   0.00  0.00  0.00  1.00  0.00  0.00  0.00  0.36  0.00
  WSL2451                 1.00   0.00  0.00  0.00  1.00  0.00  0.00  0.00  0.00  0.00
  WSL2452                 1.00   0.00  0.00  0.00  1.00  0.00  0.00  0.00  0.35  0.00
  WSL2454                 1.00   0.00  0.00  0.00  1.00  0.00  0.00  0.00  0.01  0.00
  WSL2478                 1.00   0.00  0.00  0.00  1.00  0.00  0.00  0.00  0.00  0.00
  WSL2479                 1.00   0.00  0.00  0.00  1.00  0.00  0.00  0.00  0.35  0.00
  WSL2480                 1.00   0.00  0.00  0.00  1.00  0.00  0.00  0.00  0.00  0.00
  WSL2482                 1.00   0.00  0.00  0.00  1.00  0.00  0.00  0.00  0.35  0.00
  WSL2484                 1.00   0.00  0.00  0.00  1.00  0.00  0.00  0.00  0.34  0.00
  WSL2493                 1.00   0.00  0.00  0.00  1.00  0.00  0.00  0.00  0.05  0.00
  8                       1.00   0.07  0.00  0.00  0.00  0.93  0.00  0.00  0.07  0.00
  19                      1.00   1.00  0.00  0.00  0.00  0.00  0.00  0.00  0.00  0.00
  17                      1.00   0.07  0.00  0.00  0.00  0.93  0.00  0.00  0.02  0.00
  
  
  *************************
  Conduit Surcharge Summary
  *************************
  
  ----------------------------------------------------------------------------
                                                           Hours        Hours 
                         --------- Hours Full --------   Above Full   Capacity
  Conduit                Both Ends  Upstream  Dnstream   Normal Flow   Limited
  ----------------------------------------------------------------------------
  WSL2038                     1.32      1.32      1.33      0.01         0.01
  WSL2039                     1.37      1.37      1.40      0.01         0.01
  WSL2041                     1.33      1.33      1.37      0.01         0.01
  WSL2294                     2.35      2.35      2.35      0.01         0.02
  WSL2295                     2.35      2.35      2.35      1.07         1.12
  WSL2296                     2.35      2.35      2.74      0.01         0.01
  WSL2297                     2.48      2.48      2.50      0.01         0.01
  WSL2298                     2.35      2.35      2.35      1.37         1.42
  WSL2301                     2.50      2.50      2.57      0.01         0.01
  WSL2302                     2.57      2.57      2.61      0.01         0.01
  WSL2441                     2.35      2.35      2.35      0.01         0.01
  WSL2442                     2.35      2.35      2.36      0.01         0.01
  WSL2443                     2.34      2.34      2.35      0.01         0.01
  WSL2444                     2.33      2.33      2.34      0.01         0.01
  WSL2446                     2.33      2.33      2.33      0.01         0.01
  WSL2447                     2.32      2.32      2.33      0.02         0.01
  WSL2448                     2.32      2.32      2.32      0.01         0.01
  WSL2449                     2.32      2.32      2.32      0.01         0.01
  WSL2450                     2.32      2.32      2.32      0.01         0.01
  WSL2451                     2.32      2.32      2.32      0.07         0.01
  WSL2452                     2.31      2.31      2.32      0.01         0.01
  WSL2454                     2.31      2.31      2.31      0.01         0.01
  WSL2478                     2.31      2.31      2.31      0.04         0.01
  WSL2479                     2.21      2.21      2.31      0.01         0.01
  WSL2480                     2.13      2.13      2.21      1.49         1.40
  WSL2482                     1.45      1.45      2.13      1.22         1.22
  WSL2484                     1.28      1.28      1.45      0.01         0.01
  WSL2493                     2.35      2.35      2.35      0.01         0.01
  
  
  ***************
  Pumping Summary
  ***************
  
  ---------------------------------------------------------------------------------------------------------
                                                  Min       Avg       Max     Total     Power    % Time Off
                        Percent   Number of      Flow      Flow      Flow    Volume     Usage    Pump Curve
  Pump                 Utilized   Start-Ups       MLD       MLD       MLD  10^6 ltr     Kw-hr    Low   High
  ---------------------------------------------------------------------------------------------------------
  CC-Pump-1               47.82           2      0.00     14.70     17.28     1.078      4.87    0.0    0.0
  CC-Pump-2               47.82           2      0.00     14.70     17.28     1.078      4.87    0.0    0.0
  
  
  ***************************
  Link Pollutant Load Summary
  ***************************
  
  ------------------------------------------------------------------------------------------
                                 COD         NH3-N            TN            TP            SS
  Link                            kg            kg            kg            kg            kg
  ------------------------------------------------------------------------------------------
  WSL2038                    169.903         0.000         0.000         0.000         0.000
  WSL2039                    175.170         0.000         0.000         0.000         0.000
  WSL2041                    173.274         0.000         0.000         0.000         0.000
  WSL2294                    500.462         0.000         0.000         0.000         0.000
  WSL2295                    498.138         0.000         0.000         0.000         0.000
  WSL2296                    503.055         0.000         0.000         0.000         0.000
  WSL2297                    503.540         0.000         0.000         0.000         0.000
  WSL2298                    499.115         0.000         0.000         0.000         0.000
  WSL2301                    502.208         0.000         0.000         0.000         0.000
  WSL2302                    503.612         0.000         0.000         0.000         0.000
  WSL2441                    502.109         0.000         0.000         0.000         0.000
  WSL2442                     37.815         0.000         0.000         0.000         0.000
  WSL2443                     36.096         0.000         0.000         0.000         0.000
  WSL2444                     32.781         0.000         0.000         0.000         0.000
  WSL2446                     33.642         0.000         0.000         0.000         0.000
  WSL2447                     36.578         0.000         0.000         0.000         0.000
  WSL2448                     38.074         0.000         0.000         0.000         0.000
  WSL2449                     40.852         0.000         0.000         0.000         0.000
  WSL2450                     44.166         0.000         0.000         0.000         0.000
  WSL2451                     47.601         0.000         0.000         0.000         0.000
  WSL2452                     51.932         0.000         0.000         0.000         0.000
  WSL2454                     55.829         0.000         0.000         0.000         0.000
  WSL2478                     58.095         0.000         0.000         0.000         0.000
  WSL2479                    175.912         0.000         0.000         0.000         0.000
  WSL2480                    721.414         0.000         0.000         0.000         0.000
  WSL2482                    718.359         0.000         0.000         0.000         0.000
  WSL2484                    656.969         0.000         0.000         0.000         0.000
  WSL2493                     41.856         0.000         0.000         0.000         0.000
  8                          843.217         0.000         0.000         0.000         0.000
  19                           0.000         0.000         0.000         0.000         0.000
  17                         498.293         0.000         0.000         0.000         0.000
  CC-Pump-1                  240.259         0.000         0.000         0.000         0.000
  CC-Pump-2                  240.259         0.000         0.000         0.000         0.000
  

  Analysis begun on:  Mon Aug 19 10:42:16 2019
  Analysis ended on:  Mon Aug 19 10:42:17 2019
  Total elapsed time: 00:00:01