
  EPA STORM WATER MANAGEMENT MODEL - VERSION 5.1 (Build 5.2.0.dev5)
  --------------------------------------------------------------

  
  *********************************************************
  NOTE: The summary statistics displayed in this report are
  based on results found at every computational time step,  
  not just on results from each reporting time step.
  *********************************************************
  
  ****************
  Analysis Options
  ****************
  Flow Units ............... MLD
  Process Models:
    Rainfall/Runoff ........ YES
    RDII ................... NO
    Snowmelt ............... NO
    Groundwater ............ NO
    Flow Routing ........... YES
    Ponding Allowed ........ NO
    Water Quality .......... YES
  Infiltration Method ...... GREEN_AMPT
  Flow Routing Method ...... DYNWAVE
  Surcharge Method ......... EXTRAN
  Starting Date ............ 08/28/2015 08:00:00
  Ending Date .............. 08/28/2015 11:50:00
  Antecedent Dry Days ...... 4.0
  Report Time Step ......... 00:01:00
  Wet Time Step ............ 00:01:00
  Dry Time Step ............ 00:01:00
  Routing Time Step ........ 5.00 sec
  Variable Time Step ....... YES
  Maximum Trials ........... 8
  Number of Threads ........ 1
  Head Tolerance ........... 0.001500 m
  
  
  **************************        Volume         Depth
  Runoff Quantity Continuity     hectare-m            mm
  **************************     ---------       -------
  Total Precipitation ......         0.844        13.637
  Evaporation Loss .........         0.000         0.000
  Infiltration Loss ........         0.435         7.034
  Surface Runoff ...........         0.167         2.692
  Final Storage ............         0.242         3.911
  Continuity Error (%) .....        -0.007
  
  
  **************************           COD         NH3-N            TN            TP            SS
  Runoff Quality Continuity             kg            kg            kg            kg            kg
  **************************    ----------    ----------    ----------    ----------    ----------
  Initial Buildup ..........      2504.640         0.000         0.000         0.000         0.000
  Surface Buildup ..........        20.192         0.000         0.000         0.000         0.000
  Wet Deposition ...........         0.000         0.000         0.000         0.000         0.000
  Sweeping Removal .........         0.000         0.000         0.000         0.000         0.000
  Infiltration Loss ........        63.201         0.000         0.000         0.000         0.000
  BMP Removal ..............         0.000         0.000         0.000         0.000         0.000
  Surface Runoff ...........       211.409         0.000         0.000         0.000         0.000
  Remaining Buildup ........      2249.510         0.000         0.000         0.000         0.000
  Continuity Error (%) .....         0.028         0.000         0.000         0.000         0.000
  
  
  **************************        Volume        Volume
  Flow Routing Continuity        hectare-m      10^6 ltr
  **************************     ---------     ---------
  Dry Weather Inflow .......         0.000         0.000
  Wet Weather Inflow .......         0.166         1.662
  Groundwater Inflow .......         0.000         0.000
  RDII Inflow ..............         0.000         0.000
  External Inflow ..........         0.082         0.822
  External Outflow .........         0.206         2.060
  Flooding Loss ............         0.006         0.063
  Evaporation Loss .........         0.000         0.000
  Exfiltration Loss ........         0.000         0.000
  Initial Stored Volume ....         0.000         0.000
  Final Stored Volume ......         0.046         0.462
  Continuity Error (%) .....        -4.054
  
  
  **************************           COD         NH3-N            TN            TP            SS
  Quality Routing Continuity            kg            kg            kg            kg            kg
  **************************    ----------    ----------    ----------    ----------    ----------
  Dry Weather Inflow .......         0.000         0.000         0.000         0.000         0.000
  Wet Weather Inflow .......       211.058         0.000         0.000         0.000         0.000
  Groundwater Inflow .......         0.000         0.000         0.000         0.000         0.000
  RDII Inflow ..............         0.000         0.000         0.000         0.000         0.000
  External Inflow ..........       137.264         0.000         0.000         0.000         0.000
  External Outflow .........       258.734         0.000         0.000         0.000         0.000
  Flooding Loss ............         7.532         0.000         0.000         0.000         0.000
  Exfiltration Loss ........         0.000         0.000         0.000         0.000         0.000
  Mass Reacted .............         0.000         0.000         0.000         0.000         0.000
  Initial Stored Mass ......         0.000         0.000         0.000         0.000         0.000
  Final Stored Mass ........        61.351         0.000         0.000         0.000         0.000
  Continuity Error (%) .....         5.944         0.000         0.000         0.000         0.000
  
  
  *************************
  Highest Continuity Errors
  *************************
  Node WS02006230 (6.33%)
  Node WS02006115 (4.17%)
  Node WS02006242 (3.98%)
  Node WS02006229 (3.94%)
  Node WS02006240 (3.80%)
  
  
  ***************************
  Time-Step Critical Elements
  ***************************
  Link 8 (78.92%)
  Link 17 (11.02%)
  Link WSL2448 (8.63%)
  
  
  ********************************
  Highest Flow Instability Indexes
  ********************************
  Link WSL2301 (3)
  Link WSL2302 (2)
  Link WSL2297 (2)
  Link WSL2296 (2)
  Link WSL2298 (1)
  
  
  *************************
  Routing Time Step Summary
  *************************
  Minimum Time Step           :     0.50 sec
  Average Time Step           :     1.02 sec
  Maximum Time Step           :     5.00 sec
  Percent in Steady State     :     0.00
  Average Iterations per Step :     2.15
  Percent Not Converging      :     1.97
  
  
  ***************************
  Subcatchment Runoff Summary
  ***************************
  
  ------------------------------------------------------------------------------------------------------------------------------
                            Total      Total      Total      Total     Imperv       Perv      Total       Total     Peak  Runoff
                           Precip      Runon       Evap      Infil     Runoff     Runoff     Runoff      Runoff   Runoff   Coeff
  Subcatchment                 mm         mm         mm         mm         mm         mm         mm    10^6 ltr      MLD
  ------------------------------------------------------------------------------------------------------------------------------
  1                         13.64      13.14       0.00       8.19       6.34       4.70      11.04        0.13     2.00   0.412
  2                         13.64       0.00       0.00       6.72       3.22       0.85       4.07        0.14     2.56   0.299
  3                         13.64       0.00       0.00       6.75       3.18       0.71       3.89        0.20     3.67   0.285
  35                        13.64       0.00       0.00       6.72       3.24       0.89       4.12        0.12     2.33   0.302
  36                        13.64       7.88       0.00       7.90       4.92       1.77       6.69        0.39     6.39   0.311
  40                        13.64       2.15       0.00       7.08       3.70       1.12       4.81        0.19     3.34   0.305
  41                        13.64       0.00       0.00       6.68       3.27       1.07       4.34        0.08     1.58   0.318
  42                        13.64       0.00       0.00       6.70       3.26       1.00       4.26        0.10     1.82   0.312
  43                        13.64       0.00       0.00       6.49       3.36       1.98       5.34        0.02     0.36   0.391
  44                        13.64     111.42       0.00      12.80      30.49      60.49      90.98        0.34     5.68   0.728
  45                        13.64       0.00       0.00       6.62       3.32       1.37       4.68        0.05     0.91   0.343
  46                        13.64       6.60       0.00       7.63       4.79       2.37       7.16        0.15     2.50   0.354
  47                        13.64       0.00       0.00       6.63       3.31       1.33       4.64        0.05     0.97   0.340
  48                        13.64       3.26       0.00       7.16       4.05       1.86       5.91        0.09     1.62   0.350
  55                        13.64       4.85       0.00       7.28       4.48       2.83       7.30        0.06     1.02   0.395
  56                        13.64       7.28       0.00       7.70       4.94       2.51       7.45        0.16     2.57   0.356
  57                        13.64       0.00       0.00       6.75       3.18       0.72       3.90        0.19     3.61   0.286
  59                        13.64       0.00       0.00       6.60       3.33       1.48       4.80        0.04     0.76   0.352
  60                        13.64      10.59       0.00       7.84       5.89       5.45      11.34        0.06     0.94   0.468
  61                        13.64       0.00       0.00       6.81       2.95       0.40       3.36        0.60    10.71   0.246
  64                        13.64       0.00       0.00       6.64       3.31       1.29       4.60        0.06     1.04   0.337
  
  
  ****************************
  Subcatchment Washoff Summary
  ****************************
  
  ------------------------------------------------------------------------------------------
                                 COD         NH3-N            TN            TP            SS
  Subcatchment                    kg            kg            kg            kg            kg
  ------------------------------------------------------------------------------------------
  1                           16.040         0.000         0.000         0.000         0.000
  2                            0.000         0.000         0.000         0.000         0.000
  3                            0.000         0.000         0.000         0.000         0.000
  35                          16.139         0.000         0.000         0.000         0.000
  36                          95.829         0.000         0.000         0.000         0.000
  40                          30.486         0.000         0.000         0.000         0.000
  41                          11.309         0.000         0.000         0.000         0.000
  42                          12.861         0.000         0.000         0.000         0.000
  43                           3.031         0.000         0.000         0.000         0.000
  44                          91.550         0.000         0.000         0.000         0.000
  45                           6.855         0.000         0.000         0.000         0.000
  46                          37.138         0.000         0.000         0.000         0.000
  47                           7.270         0.000         0.000         0.000         0.000
  48                          18.003         0.000         0.000         0.000         0.000
  55                          13.847         0.000         0.000         0.000         0.000
  56                          40.923         0.000         0.000         0.000         0.000
  57                          24.086         0.000         0.000         0.000         0.000
  59                           5.843         0.000         0.000         0.000         0.000
  60                          17.440         0.000         0.000         0.000         0.000
  61                          65.887         0.000         0.000         0.000         0.000
  64                           7.731         0.000         0.000         0.000         0.000
  ------------------------------------------------------------------------------------------
  System                     522.267         0.000         0.000         0.000         0.000
  
  
  ******************
  Node Depth Summary
  ******************
  
  ---------------------------------------------------------------------------------
                                 Average  Maximum  Maximum  Time of Max    Reported
                                   Depth    Depth      HGL   Occurrence   Max Depth
  Node                 Type       Meters   Meters   Meters  days hr:min      Meters
  ---------------------------------------------------------------------------------
  WS01000070           JUNCTION     0.00     0.00     0.00     0  00:00        0.00
  WS01000323           JUNCTION     0.00     0.00     0.00     0  00:00        0.00
  WS01000533           JUNCTION     0.00     0.00     6.86     0  00:00        0.00
  WS01005172           JUNCTION     0.00     0.00     0.00     0  00:00        0.00
  WS01005181           JUNCTION     0.00     0.00     0.00     0  00:00        0.00
  WS01009841           JUNCTION     0.00     0.00     0.00     0  00:00        0.00
  WS02000078           JUNCTION     0.00     0.00     0.00     0  00:00        0.00
  WS02000112           JUNCTION     0.00     0.00     0.00     0  00:00        0.00
  WS02000136           JUNCTION     0.00     0.00     0.00     0  00:00        0.00
  WS02004053           JUNCTION     0.00     0.00     0.00     0  00:00        0.00
  WS02004401           JUNCTION     2.14     2.33     8.33     0  02:37        2.33
  WS02005192           JUNCTION     0.43     1.29     9.16     0  01:47        0.69
  WS02005193           JUNCTION     0.47     0.74     8.56     0  02:30        0.74
  WS02005196           JUNCTION     0.45     0.71     8.56     0  02:29        0.71
  WS02006109           JUNCTION     1.55     1.76     8.38     0  01:42        1.74
  WS02006110           JUNCTION     1.57     1.80     8.40     0  01:42        1.76
  WS02006111           JUNCTION     1.58     1.81     8.39     0  01:42        1.76
  WS02006112           JUNCTION     2.03     2.25     8.37     0  01:42        2.22
  WS02006113           JUNCTION     1.57     1.81     8.40     0  01:42        1.76
  WS02006115           JUNCTION     2.05     2.24     8.34     0  02:38        2.24
  WS02006116           JUNCTION     2.11     2.30     8.34     0  02:38        2.30
  WS02006183           JUNCTION     0.00     0.00     0.00     0  00:00        0.00
  WS02006228           JUNCTION     1.52     1.72     8.37     0  02:35        1.71
  WS02006229           JUNCTION     1.48     1.68     8.37     0  02:35        1.68
  WS02006230           JUNCTION     1.42     1.62     8.37     0  01:43        1.62
  WS02006231           JUNCTION     1.28     1.49     8.39     0  01:43        1.47
  WS02006232           JUNCTION     1.16     1.38     8.41     0  01:43        1.34
  WS02006234           JUNCTION     1.04     1.27     8.43     0  01:43        1.22
  WS02006235           JUNCTION     1.04     1.27     8.44     0  01:43        1.21
  WS02006238           JUNCTION     1.03     1.26     8.44     0  01:43        1.20
  WS02006239           JUNCTION     1.00     1.22     8.43     0  01:43        1.17
  WS02006242           JUNCTION     0.92     1.55     8.85     0  01:41        1.08
  WS02006240           JUNCTION     0.93     1.58     8.87     0  01:41        1.09
  WS02006243           JUNCTION     0.81     1.28     8.70     0  01:42        0.97
  WS02006245           JUNCTION     0.75     1.30     8.79     0  01:43        0.90
  WS02006247           JUNCTION     0.73     1.00     8.51     0  01:42        0.88
  WS02006248           JUNCTION     0.66     0.80     8.39     0  02:30        0.80
  WS02006249           JUNCTION     0.65     1.09     8.69     0  01:46        0.83
  WS02006251           JUNCTION     0.60     1.44     9.11     0  01:46        0.84
  WS02006253           JUNCTION     0.49     0.76     8.56     0  02:30        0.76
  WS02618401           JUNCTION     0.00     0.00     0.00     0  00:00        0.00
  WSA1649              JUNCTION     0.00     0.00     0.00     0  00:00        0.00
  outfall-5            OUTFALL      0.10     0.20     7.87     0  02:30        0.20
  outfall-14           OUTFALL      0.09     0.13     7.79     0  02:37        0.13
  outfall-16           OUTFALL      0.00     0.00     8.39     0  00:00        0.00
  CC-storage           STORAGE      2.42     5.63     8.81     0  02:18        5.63
  
  
  *******************
  Node Inflow Summary
  *******************
  
  -------------------------------------------------------------------------------------------------
                                  Maximum  Maximum                  Lateral       Total        Flow
                                  Lateral    Total  Time of Max      Inflow      Inflow     Balance
                                   Inflow   Inflow   Occurrence      Volume      Volume       Error
  Node                 Type           MLD      MLD  days hr:min    10^6 ltr    10^6 ltr     Percent
  -------------------------------------------------------------------------------------------------
  WS01000070           JUNCTION      0.00     0.00     0  00:00           0           0       0.000 ltr
  WS01000323           JUNCTION      0.00     0.00     0  00:00           0           0       0.000 ltr
  WS01000533           JUNCTION      0.00     0.00     0  00:00           0           0       0.000 ltr
  WS01005172           JUNCTION      0.00     0.00     0  00:00           0           0       0.000 ltr
  WS01005181           JUNCTION      0.00     0.00     0  00:00           0           0       0.000 ltr
  WS01009841           JUNCTION      0.00     0.00     0  00:00           0           0       0.000 ltr
  WS02000078           JUNCTION      0.00     0.00     0  00:00           0           0       0.000 ltr
  WS02000112           JUNCTION      0.00     0.00     0  00:00           0           0       0.000 ltr
  WS02000136           JUNCTION      0.00     0.00     0  00:00           0           0       0.000 ltr
  WS02004053           JUNCTION      0.00     0.00     0  00:00           0           0       0.000 ltr
  WS02004401           JUNCTION      0.05    18.54     0  02:37      0.0086       0.857       3.418
  WS02005192           JUNCTION      3.70    10.26     0  01:44       0.211        0.22       1.153
  WS02005193           JUNCTION      0.09    14.52     0  01:44       0.014       0.263       2.753
  WS02005196           JUNCTION      0.12    13.22     0  01:45      0.0183       0.245       2.658
  WS02006109           JUNCTION      0.08    14.31     0  02:37      0.0129       0.693       3.586
  WS02006110           JUNCTION      0.08    14.39     0  02:37      0.0126       0.683       3.696
  WS02006111           JUNCTION      0.24    18.04     0  02:37      0.0352       0.895       2.324
  WS02006112           JUNCTION      0.18    18.20     0  02:37      0.0263       0.902       3.695
  WS02006113           JUNCTION      3.82    17.83     0  02:37       0.223       0.882       2.729
  WS02006115           JUNCTION      0.08    18.28     0  02:37      0.0129       0.887       4.354
  WS02006116           JUNCTION      0.24    18.48     0  02:37      0.0347       0.889       3.926
  WS02006183           JUNCTION      0.00     0.00     0  00:00           0           0       0.000 ltr
  WS02006228           JUNCTION      5.84    14.23     0  02:37       0.363       0.719       2.509
  WS02006229           JUNCTION      0.13    11.42     0  01:39      0.0193       0.394       4.104
  WS02006230           JUNCTION      0.07    13.16     0  01:39      0.0111       0.403       6.758
  WS02006231           JUNCTION      0.13    16.11     0  01:39      0.0197        0.41       3.713
  WS02006232           JUNCTION      2.64    20.93     0  01:40        0.15       0.481       3.264
  WS02006234           JUNCTION      0.14    23.31     0  01:40      0.0208       0.421       3.372
  WS02006235           JUNCTION      0.14    24.01     0  01:40      0.0215        0.42       1.846
  WS02006238           JUNCTION      0.15    26.12     0  01:40      0.0226       0.421       2.453
  WS02006239           JUNCTION      0.11    30.26     0  01:41      0.0167       0.424       3.553
  WS02006242           JUNCTION      0.08    36.16     0  01:41      0.0124       0.448       4.142
  WS02006240           JUNCTION      0.06    31.96     0  01:41     0.00952       0.432       3.946
  WS02006243           JUNCTION      0.17    34.46     0  01:41      0.0259       0.463       3.642
  WS02006245           JUNCTION      0.07    34.46     0  01:41      0.0109       0.462       2.928
  WS02006247           JUNCTION      2.14    34.57     0  01:41       0.157       0.554       2.069
  WS02006248           JUNCTION      0.12    40.14     0  02:30      0.0185        1.51       0.704
  WS02006249           JUNCTION      0.19    40.02     0  02:30      0.0275        1.27       1.116
  WS02006251           JUNCTION      1.08    39.82     0  02:30      0.0699        1.26       1.151
  WS02006253           JUNCTION      0.11    38.61     0  02:30      0.0166        1.22       0.593
  WS02618401           JUNCTION      0.00     0.00     0  00:00           0           0       0.000 ltr
  WSA1649              JUNCTION      0.00     0.00     0  00:00           0           0       0.000 ltr
  outfall-5            OUTFALL       0.00    38.61     0  02:30           0        1.24       0.000
  outfall-14           OUTFALL       0.00    18.54     0  02:37           0       0.822       0.000
  outfall-16           OUTFALL       0.00     0.00     0  00:00           0           0       0.000 ltr
  CC-storage           STORAGE      12.33    12.33     0  02:27        0.88        0.88     -13.125
  
  
  **********************
  Node Surcharge Summary
  **********************
  
  Surcharging occurs when water rises above the top of the highest conduit.
  ---------------------------------------------------------------------
                                               Max. Height   Min. Depth
                                   Hours       Above Crown    Below Rim
  Node                 Type      Surcharged         Meters       Meters
  ---------------------------------------------------------------------
  WS01000070           JUNCTION        3.83          0.000        0.000
  WS01000323           JUNCTION        3.83          0.000        0.000
  WS01000533           JUNCTION        3.83          0.000        2.147
  WS01005172           JUNCTION        3.83          0.000        0.000
  WS01005181           JUNCTION        3.83          0.000        0.000
  WS01009841           JUNCTION        3.83          0.000        0.000
  WS02000078           JUNCTION        3.83          0.000        0.000
  WS02000112           JUNCTION        3.83          0.000        0.000
  WS02000136           JUNCTION        3.83          0.000        0.000
  WS02004053           JUNCTION        3.83          0.000        0.000
  WS02005192           JUNCTION        0.25          0.688        2.131
  WS02005193           JUNCTION        0.33          0.137        2.480
  WS02005196           JUNCTION        0.27          0.111        2.595
  WS02006109           JUNCTION        2.18          0.962        0.876
  WS02006110           JUNCTION        2.18          0.999        0.846
  WS02006111           JUNCTION        2.18          1.010        0.867
  WS02006112           JUNCTION        2.40          1.250        0.433
  WS02006113           JUNCTION        2.18          1.012        0.921
  WS02006115           JUNCTION        2.43          1.240        1.059
  WS02006116           JUNCTION        2.51          1.301        1.049
  WS02006183           JUNCTION        3.83          0.000        0.000
  WS02006228           JUNCTION        2.18          0.915        1.316
  WS02006229           JUNCTION        2.18          0.876        1.578
  WS02006231           JUNCTION        2.16          0.790        0.753
  WS02006232           JUNCTION        2.15          0.680        0.809
  WS02006234           JUNCTION        2.15          0.568        0.689
  WS02006235           JUNCTION        2.15          0.568        0.726
  WS02006238           JUNCTION        2.15          0.556        0.878
  WS02006239           JUNCTION        2.14          0.520        0.809
  WS02006242           JUNCTION        2.14          0.849        0.000
  WS02006240           JUNCTION        2.14          0.882        0.521
  WS02006243           JUNCTION        2.13          0.580        0.200
  WS02006245           JUNCTION        2.10          0.598        0.257
  WS02006247           JUNCTION        2.09          0.304        0.456
  WS02006249           JUNCTION        0.70          0.388        0.000
  WS02006251           JUNCTION        0.48          0.742        0.768
  WS02006253           JUNCTION        0.16          0.056        2.398
  WS02618401           JUNCTION        3.83          0.000        0.000
  WSA1649              JUNCTION        3.83          0.000        0.000
  
  
  *********************
  Node Flooding Summary
  *********************
  
  Flooding refers to all water that overflows a node, whether it ponds or not.
  --------------------------------------------------------------------------
                                                             Total   Maximum
                                 Maximum   Time of Max       Flood    Ponded
                        Hours       Rate    Occurrence      Volume     Depth
  Node                 Flooded       MLD   days hr:min    10^6 ltr    Meters
  --------------------------------------------------------------------------
  WS02006242              0.01     13.04      0  01:41       0.000     0.000
  WS02006249              0.01     11.23      0  01:46       0.000     0.000
  CC-storage              0.23     11.85      0  02:20       0.062     0.000
  
  
  **********************
  Storage Volume Summary
  **********************
  
  --------------------------------------------------------------------------------------------------
                         Average     Avg  Evap Exfil       Maximum     Max    Time of Max    Maximum
                          Volume    Pcnt  Pcnt  Pcnt        Volume    Pcnt     Occurrence    Outflow
  Storage Unit           1000 m3    Full  Loss  Loss       1000 m3    Full    days hr:min        MLD
  --------------------------------------------------------------------------------------------------
  CC-storage               0.068      43     0     0         0.159     100       0  02:18      34.56
  
  
  ***********************
  Outfall Loading Summary
  ***********************
  
  ---------------------------------------------------------------------------------------------------------------------------------
                         Flow       Avg       Max       Total         Total         Total         Total         Total         Total
                         Freq      Flow      Flow      Volume           COD         NH3-N            TN            TP            SS
  Outfall Node           Pcnt       MLD       MLD    10^6 ltr            kg            kg            kg            kg            kg
  ---------------------------------------------------------------------------------------------------------------------------------
  outfall-5             89.27     15.55     38.61       1.238       137.785         0.000         0.000         0.000         0.000
  outfall-14            90.02      9.85     18.54       0.822       120.961         0.000         0.000         0.000         0.000
  outfall-16             0.00      0.00      0.00       0.000         0.000         0.000         0.000         0.000         0.000
  ---------------------------------------------------------------------------------------------------------------------------------
  System                59.76     25.41     55.23       2.060       258.746         0.000         0.000         0.000         0.000
  
  
  ********************
  Link Flow Summary
  ********************
  
  -----------------------------------------------------------------------------
                                 Maximum  Time of Max   Maximum    Max/    Max/
                                  |Flow|   Occurrence   |Veloc|    Full    Full
  Link                 Type          MLD  days hr:min     m/sec    Flow   Depth
  -----------------------------------------------------------------------------
  WSL2038              CONDUIT      9.48     0  01:47      0.61    0.47    1.00
  WSL2039              CONDUIT     15.92     0  03:34      0.93    0.82    1.00
  WSL2041              CONDUIT     12.65     0  01:44      0.87    0.62    1.00
  WSL2294              CONDUIT     14.31     0  02:37      0.43    0.48    1.00
  WSL2295              CONDUIT     14.39     0  02:37      0.50    0.65    1.00
  WSL2296              CONDUIT     18.04     0  02:37      0.63    0.10    1.00
  WSL2297              CONDUIT     18.20     0  02:37      0.34    0.35    1.00
  WSL2298              CONDUIT     17.83     0  02:37      0.87    0.82    1.00
  WSL2301              CONDUIT     18.28     0  02:37      0.29    0.17    1.00
  WSL2302              CONDUIT     18.48     0  02:37      0.27    0.23    1.00
  WSL2441              CONDUIT     14.23     0  02:37      0.44    0.36    1.00
  WSL2442              CONDUIT     11.29     0  01:39      0.63    0.29    1.00
  WSL2443              CONDUIT     13.09     0  01:39      0.73    0.20    1.00
  WSL2444              CONDUIT     15.98     0  01:39      0.87    0.25    1.00
  WSL2446              CONDUIT     20.14     0  01:40      0.98    0.35    1.00
  WSL2447              CONDUIT     23.17     0  01:40      1.24    1.19    1.00
  WSL2448              CONDUIT     23.87     0  01:40      1.18    0.67    1.00
  WSL2449              CONDUIT     25.97     0  01:40      1.17    0.91    1.00
  WSL2450              CONDUIT     30.15     0  01:41      1.25    0.63    1.00
  WSL2451              CONDUIT     31.89     0  01:41      1.27    2.08    1.00
  WSL2452              CONDUIT     36.07     0  01:41      1.33    0.69    1.00
  WSL2454              CONDUIT     34.29     0  01:41      1.47    0.80    1.00
  WSL2478              CONDUIT     34.39     0  01:41      1.41    1.21    1.00
  WSL2479              CONDUIT     33.98     0  01:41      1.41    0.65    1.00
  WSL2480              CONDUIT     40.03     0  02:30      1.42    1.85    1.00
  WSL2482              CONDUIT     39.86     0  02:30      1.36    1.04    1.00
  WSL2484              CONDUIT     38.76     0  02:30      1.51    0.55    1.00
  WSL2493              CONDUIT      9.95     0  01:39      0.51    0.17    1.00
  8                    CONDUIT     38.61     0  02:30      7.01    0.51    0.51
  19                   CONDUIT      0.00     0  00:00      0.00    0.00    0.00
  17                   CONDUIT     18.54     0  02:37      5.83    0.24    0.33
  CC-Pump-1            PUMP        17.28     0  02:30              1.00
  CC-Pump-2            PUMP        17.28     0  02:30              1.00
  
  
  ***************************
  Flow Classification Summary
  ***************************
  
  -------------------------------------------------------------------------------------
                      Adjusted    ---------- Fraction of Time in Flow Class ---------- 
                       /Actual         Up    Down  Sub   Sup   Up    Down  Norm  Inlet 
  Conduit               Length    Dry  Dry   Dry   Crit  Crit  Crit  Crit  Ltd   Ctrl  
  -------------------------------------------------------------------------------------
  WSL2038                 1.00   0.00  0.00  0.00  1.00  0.00  0.00  0.00  0.01  0.00
  WSL2039                 1.00   0.00  0.00  0.00  1.00  0.00  0.00  0.00  0.00  0.00
  WSL2041                 1.00   0.00  0.00  0.00  1.00  0.00  0.00  0.00  0.34  0.00
  WSL2294                 1.00   0.00  0.00  0.00  1.00  0.00  0.00  0.00  0.00  0.00
  WSL2295                 1.00   0.00  0.00  0.00  1.00  0.00  0.00  0.00  0.00  0.00
  WSL2296                 1.00   0.00  0.00  0.00  1.00  0.00  0.00  0.00  0.17  0.00
  WSL2297                 1.00   0.00  0.00  0.00  1.00  0.00  0.00  0.00  0.00  0.00
  WSL2298                 1.00   0.00  0.00  0.00  0.98  0.02  0.00  0.00  0.00  0.00
  WSL2301                 1.00   0.00  0.00  0.00  1.00  0.00  0.00  0.00  0.04  0.00
  WSL2302                 1.00   0.00  0.00  0.00  1.00  0.00  0.00  0.00  0.01  0.00
  WSL2441                 1.00   0.00  0.00  0.00  1.00  0.00  0.00  0.00  0.00  0.00
  WSL2442                 1.00   0.00  0.00  0.00  1.00  0.00  0.00  0.00  0.17  0.00
  WSL2443                 1.00   0.00  0.00  0.00  1.00  0.00  0.00  0.00  0.31  0.00
  WSL2444                 1.00   0.00  0.00  0.00  0.94  0.06  0.00  0.00  0.25  0.00
  WSL2446                 1.00   0.00  0.00  0.00  0.93  0.07  0.00  0.00  0.03  0.00
  WSL2447                 1.00   0.00  0.00  0.00  1.00  0.00  0.00  0.00  0.00  0.00
  WSL2448                 1.00   0.00  0.00  0.00  1.00  0.00  0.00  0.00  0.00  0.00
  WSL2449                 1.00   0.00  0.00  0.00  1.00  0.00  0.00  0.00  0.02  0.00
  WSL2450                 1.00   0.00  0.00  0.00  1.00  0.00  0.00  0.00  0.41  0.00
  WSL2451                 1.00   0.00  0.00  0.00  1.00  0.00  0.00  0.00  0.00  0.00
  WSL2452                 1.00   0.00  0.00  0.00  1.00  0.00  0.00  0.00  0.39  0.00
  WSL2454                 1.00   0.00  0.00  0.00  1.00  0.00  0.00  0.00  0.01  0.00
  WSL2478                 1.00   0.00  0.00  0.00  1.00  0.00  0.00  0.00  0.00  0.00
  WSL2479                 1.00   0.00  0.00  0.00  1.00  0.00  0.00  0.00  0.40  0.00
  WSL2480                 1.00   0.00  0.00  0.00  1.00  0.00  0.00  0.00  0.00  0.00
  WSL2482                 1.00   0.00  0.00  0.00  1.00  0.00  0.00  0.00  0.40  0.00
  WSL2484                 1.00   0.00  0.00  0.00  1.00  0.00  0.00  0.00  0.38  0.00
  WSL2493                 1.00   0.00  0.00  0.00  1.00  0.00  0.00  0.00  0.05  0.00
  8                       1.00   0.11  0.00  0.00  0.00  0.89  0.00  0.00  0.11  0.00
  19                      1.00   1.00  0.00  0.00  0.00  0.00  0.00  0.00  0.00  0.00
  17                      1.00   0.10  0.00  0.00  0.00  0.90  0.00  0.00  0.05  0.00
  
  
  *************************
  Conduit Surcharge Summary
  *************************
  
  ----------------------------------------------------------------------------
                                                           Hours        Hours 
                         --------- Hours Full --------   Above Full   Capacity
  Conduit                Both Ends  Upstream  Dnstream   Normal Flow   Limited
  ----------------------------------------------------------------------------
  WSL2038                     0.25      0.25      0.27      0.01         0.01
  WSL2039                     0.32      0.33      0.41      0.01         0.01
  WSL2041                     0.27      0.27      0.33      0.01         0.01
  WSL2294                     2.18      2.18      2.18      0.01         0.01
  WSL2295                     2.18      2.18      2.18      0.01         0.02
  WSL2296                     2.18      2.18      2.74      0.01         0.01
  WSL2297                     2.39      2.39      2.43      0.01         0.01
  WSL2298                     2.18      2.18      2.18      0.01         0.02
  WSL2301                     2.43      2.43      2.51      0.01         0.01
  WSL2302                     2.51      2.51      2.59      0.01         0.01
  WSL2441                     2.18      2.18      2.18      0.01         0.01
  WSL2442                     2.18      2.18      2.19      0.01         0.01
  WSL2443                     2.16      2.16      2.18      0.01         0.01
  WSL2444                     2.15      2.15      2.16      0.01         0.01
  WSL2446                     2.15      2.15      2.15      0.01         0.01
  WSL2447                     2.15      2.15      2.15      0.02         0.01
  WSL2448                     2.15      2.15      2.15      0.01         0.01
  WSL2449                     2.14      2.14      2.15      0.01         0.01
  WSL2450                     2.14      2.14      2.14      0.01         0.01
  WSL2451                     2.14      2.14      2.14      0.07         0.01
  WSL2452                     2.13      2.13      2.14      0.01         0.01
  WSL2454                     2.10      2.10      2.13      0.01         0.01
  WSL2478                     2.08      2.09      2.10      0.04         0.01
  WSL2479                     0.83      0.83      2.09      0.01         0.01
  WSL2480                     0.70      0.70      0.83      0.57         0.50
  WSL2482                     0.48      0.48      0.70      0.12         0.14
  WSL2484                     0.16      0.16      0.48      0.01         0.01
  WSL2493                     2.18      2.18      2.18      0.01         0.01
  
  
  ***************
  Pumping Summary
  ***************
  
  ---------------------------------------------------------------------------------------------------------
                                                  Min       Avg       Max     Total     Power    % Time Off
                        Percent   Number of      Flow      Flow      Flow    Volume     Usage    Pump Curve
  Pump                 Utilized   Start-Ups       MLD       MLD       MLD  10^6 ltr     Kw-hr    Low   High
  ---------------------------------------------------------------------------------------------------------
  CC-Pump-1               34.77           3      0.00      9.06     17.28     0.476      4.14    0.0    0.0
  CC-Pump-2               34.77           3      0.00      9.06     17.28     0.476      4.14    0.0    0.0
  
  
  ***************************
  Link Pollutant Load Summary
  ***************************
  
  ------------------------------------------------------------------------------------------
                                 COD         NH3-N            TN            TP            SS
  Link                            kg            kg            kg            kg            kg
  ------------------------------------------------------------------------------------------
  WSL2038                     28.782         0.000         0.000         0.000         0.000
  WSL2039                     33.943         0.000         0.000         0.000         0.000
  WSL2041                     31.400         0.000         0.000         0.000         0.000
  WSL2294                    130.302         0.000         0.000         0.000         0.000
  WSL2295                    128.142         0.000         0.000         0.000         0.000
  WSL2296                    132.104         0.000         0.000         0.000         0.000
  WSL2297                    129.941         0.000         0.000         0.000         0.000
  WSL2298                    128.513         0.000         0.000         0.000         0.000
  WSL2301                    127.178         0.000         0.000         0.000         0.000
  WSL2302                    126.347         0.000         0.000         0.000         0.000
  WSL2441                    132.023         0.000         0.000         0.000         0.000
  WSL2442                     43.287         0.000         0.000         0.000         0.000
  WSL2443                     42.325         0.000         0.000         0.000         0.000
  WSL2444                     39.938         0.000         0.000         0.000         0.000
  WSL2446                     42.914         0.000         0.000         0.000         0.000
  WSL2447                     48.063         0.000         0.000         0.000         0.000
  WSL2448                     49.904         0.000         0.000         0.000         0.000
  WSL2449                     52.080         0.000         0.000         0.000         0.000
  WSL2450                     55.766         0.000         0.000         0.000         0.000
  WSL2451                     59.307         0.000         0.000         0.000         0.000
  WSL2452                     62.101         0.000         0.000         0.000         0.000
  WSL2454                     62.807         0.000         0.000         0.000         0.000
  WSL2478                     63.659         0.000         0.000         0.000         0.000
  WSL2479                     65.932         0.000         0.000         0.000         0.000
  WSL2480                    142.995         0.000         0.000         0.000         0.000
  WSL2482                    138.916         0.000         0.000         0.000         0.000
  WSL2484                    123.159         0.000         0.000         0.000         0.000
  WSL2493                     47.459         0.000         0.000         0.000         0.000
  8                          137.785         0.000         0.000         0.000         0.000
  19                           0.000         0.000         0.000         0.000         0.000
  17                         120.961         0.000         0.000         0.000         0.000
  CC-Pump-1                   43.711         0.000         0.000         0.000         0.000
  CC-Pump-2                   43.711         0.000         0.000         0.000         0.000
  

  Analysis begun on:  Mon Aug 19 10:42:28 2019
  Analysis ended on:  Mon Aug 19 10:42:29 2019
  Total elapsed time: 00:00:01