
  EPA STORM WATER MANAGEMENT MODEL - VERSION 5.1 (Build 5.2.0.dev5)
  --------------------------------------------------------------

  
  *********************************************************
  NOTE: The summary statistics displayed in this report are
  based on results found at every computational time step,  
  not just on results from each reporting time step.
  *********************************************************
  
  ****************
  Analysis Options
  ****************
  Flow Units ............... MLD
  Process Models:
    Rainfall/Runoff ........ YES
    RDII ................... NO
    Snowmelt ............... NO
    Groundwater ............ NO
    Flow Routing ........... YES
    Ponding Allowed ........ NO
    Water Quality .......... YES
  Infiltration Method ...... GREEN_AMPT
  Flow Routing Method ...... DYNWAVE
  Surcharge Method ......... EXTRAN
  Starting Date ............ 08/28/2015 08:00:00
  Ending Date .............. 08/28/2015 11:50:00
  Antecedent Dry Days ...... 4.0
  Report Time Step ......... 00:01:00
  Wet Time Step ............ 00:01:00
  Dry Time Step ............ 00:01:00
  Routing Time Step ........ 5.00 sec
  Variable Time Step ....... YES
  Maximum Trials ........... 8
  Number of Threads ........ 1
  Head Tolerance ........... 0.001500 m
  
  
  **************************        Volume         Depth
  Runoff Quantity Continuity     hectare-m            mm
  **************************     ---------       -------
  Total Precipitation ......         1.592        25.733
  Evaporation Loss .........         0.000         0.000
  Infiltration Loss ........         0.560         9.053
  Surface Runoff ...........         0.407         6.578
  Final Storage ............         0.625        10.102
  Continuity Error (%) .....        -0.004
  
  
  **************************           COD         NH3-N            TN            TP            SS
  Runoff Quality Continuity             kg            kg            kg            kg            kg
  **************************    ----------    ----------    ----------    ----------    ----------
  Initial Buildup ..........      2504.640         0.000         0.000         0.000         0.000
  Surface Buildup ..........        19.567         0.000         0.000         0.000         0.000
  Wet Deposition ...........         0.000         0.000         0.000         0.000         0.000
  Sweeping Removal .........         0.000         0.000         0.000         0.000         0.000
  Infiltration Loss ........       141.629         0.000         0.000         0.000         0.000
  BMP Removal ..............         0.000         0.000         0.000         0.000         0.000
  Surface Runoff ...........       835.533         0.000         0.000         0.000         0.000
  Remaining Buildup ........      1544.979         0.000         0.000         0.000         0.000
  Continuity Error (%) .....         0.082         0.000         0.000         0.000         0.000
  
  
  **************************        Volume        Volume
  Flow Routing Continuity        hectare-m      10^6 ltr
  **************************     ---------     ---------
  Dry Weather Inflow .......         0.000         0.000
  Wet Weather Inflow .......         0.406         4.059
  Groundwater Inflow .......         0.000         0.000
  RDII Inflow ..............         0.000         0.000
  External Inflow ..........         0.082         0.822
  External Outflow .........         0.409         4.086
  Flooding Loss ............         0.041         0.409
  Evaporation Loss .........         0.000         0.000
  Exfiltration Loss ........         0.000         0.000
  Initial Stored Volume ....         0.000         0.000
  Final Stored Volume ......         0.053         0.533
  Continuity Error (%) .....        -3.000
  
  
  **************************           COD         NH3-N            TN            TP            SS
  Quality Routing Continuity            kg            kg            kg            kg            kg
  **************************    ----------    ----------    ----------    ----------    ----------
  Dry Weather Inflow .......         0.000         0.000         0.000         0.000         0.000
  Wet Weather Inflow .......       833.998         0.000         0.000         0.000         0.000
  Groundwater Inflow .......         0.000         0.000         0.000         0.000         0.000
  RDII Inflow ..............         0.000         0.000         0.000         0.000         0.000
  External Inflow ..........       137.263         0.000         0.000         0.000         0.000
  External Outflow .........       742.711         0.000         0.000         0.000         0.000
  Flooding Loss ............       117.707         0.000         0.000         0.000         0.000
  Exfiltration Loss ........         0.000         0.000         0.000         0.000         0.000
  Mass Reacted .............         0.000         0.000         0.000         0.000         0.000
  Initial Stored Mass ......         0.000         0.000         0.000         0.000         0.000
  Final Stored Mass ........        75.161         0.000         0.000         0.000         0.000
  Continuity Error (%) .....         3.674         0.000         0.000         0.000         0.000
  
  
  *************************
  Highest Continuity Errors
  *************************
  Node WS02006230 (6.24%)
  Node WS02006229 (3.83%)
  Node WS02006242 (3.30%)
  Node WS02006231 (3.28%)
  Node WS02006240 (2.90%)
  
  
  ***************************
  Time-Step Critical Elements
  ***************************
  Link 8 (87.39%)
  Link WSL2448 (6.70%)
  Link 17 (4.76%)
  
  
  ********************************
  Highest Flow Instability Indexes
  ********************************
  Link WSL2301 (2)
  Link WSL2302 (2)
  Link WSL2297 (2)
  Link WSL2296 (2)
  Link WSL2298 (1)
  
  
  *************************
  Routing Time Step Summary
  *************************
  Minimum Time Step           :     0.40 sec
  Average Time Step           :     0.86 sec
  Maximum Time Step           :     5.00 sec
  Percent in Steady State     :    -0.00
  Average Iterations per Step :     2.13
  Percent Not Converging      :     1.78
  
  
  ***************************
  Subcatchment Runoff Summary
  ***************************
  
  ------------------------------------------------------------------------------------------------------------------------------
                            Total      Total      Total      Total     Imperv       Perv      Total       Total     Peak  Runoff
                           Precip      Runon       Evap      Infil     Runoff     Runoff     Runoff      Runoff   Runoff   Coeff
  Subcatchment                 mm         mm         mm         mm         mm         mm         mm    10^6 ltr      MLD
  ------------------------------------------------------------------------------------------------------------------------------
  1                         25.73      34.91       0.00      10.78      14.42      17.25      31.67        0.38     7.38   0.522
  2                         25.73       0.00       0.00       8.56       6.20       3.42       9.61        0.32     6.80   0.374
  3                         25.73       0.00       0.00       8.63       6.13       2.91       9.04        0.46     9.63   0.351
  35                        25.73       0.00       0.00       8.54       6.21       3.56       9.77        0.30     6.22   0.380
  36                        25.73      19.59       0.00      10.45      10.50       6.86      17.37        1.02    19.67   0.383
  40                        25.73       5.17       0.00       9.12       7.35       4.39      11.74        0.46     9.25   0.380
  41                        25.73       0.00       0.00       8.45       6.26       4.19      10.45        0.20     4.28   0.406
  42                        25.73       0.00       0.00       8.49       6.25       3.95      10.20        0.23     4.90   0.396
  43                        25.73       0.00       0.00       7.99       6.37       7.01      13.38        0.05     1.06   0.520
  44                        25.73     288.19       0.00      16.85      76.84     175.76     252.59        0.93    19.00   0.805
  45                        25.73       0.00       0.00       8.30       6.32       5.19      11.50        0.12     2.53   0.447
  46                        25.73      16.62       0.00       9.93      10.08       8.90      18.98        0.41     7.86   0.448
  47                        25.73       0.00       0.00       8.32       6.31       5.06      11.38        0.13     2.69   0.442
  48                        25.73       7.97       0.00       9.16       8.13       6.96      15.09        0.24     4.77   0.448
  55                        25.73      11.97       0.00       9.26       9.15      10.07      19.22        0.16     3.19   0.510
  56                        25.73      18.20       0.00      10.05      10.45       9.40      19.85        0.42     8.23   0.452
  57                        25.73       0.00       0.00       8.63       6.13       2.93       9.06        0.45     9.47   0.352
  59                        25.73       0.00       0.00       8.25       6.33       5.53      11.86        0.10     2.14   0.461
  60                        25.73      25.87       0.00       9.99      12.56      17.93      30.48        0.16     3.20   0.591
  61                        25.73       0.00       0.00       8.78       5.81       1.71       7.52        1.35    27.94   0.292
  64                        25.73       0.00       0.00       8.34       6.31       4.94      11.24        0.13     2.87   0.437
  
  
  ****************************
  Subcatchment Washoff Summary
  ****************************
  
  ------------------------------------------------------------------------------------------
                                 COD         NH3-N            TN            TP            SS
  Subcatchment                    kg            kg            kg            kg            kg
  ------------------------------------------------------------------------------------------
  1                           71.971         0.000         0.000         0.000         0.000
  2                            0.000         0.000         0.000         0.000         0.000
  3                            0.000         0.000         0.000         0.000         0.000
  35                          69.564         0.000         0.000         0.000         0.000
  36                         356.361         0.000         0.000         0.000         0.000
  40                         128.910         0.000         0.000         0.000         0.000
  41                          48.710         0.000         0.000         0.000         0.000
  42                          55.437         0.000         0.000         0.000         0.000
  43                          12.116         0.000         0.000         0.000         0.000
  44                         327.907         0.000         0.000         0.000         0.000
  45                          29.181         0.000         0.000         0.000         0.000
  46                         133.446         0.000         0.000         0.000         0.000
  47                          31.017         0.000         0.000         0.000         0.000
  48                          71.113         0.000         0.000         0.000         0.000
  55                          47.764         0.000         0.000         0.000         0.000
  56                         136.234         0.000         0.000         0.000         0.000
  57                         103.573         0.000         0.000         0.000         0.000
  59                          24.686         0.000         0.000         0.000         0.000
  60                          44.548         0.000         0.000         0.000         0.000
  61                         284.319         0.000         0.000         0.000         0.000
  64                          33.049         0.000         0.000         0.000         0.000
  ------------------------------------------------------------------------------------------
  System                    2009.908         0.000         0.000         0.000         0.000
  
  
  ******************
  Node Depth Summary
  ******************
  
  ---------------------------------------------------------------------------------
                                 Average  Maximum  Maximum  Time of Max    Reported
                                   Depth    Depth      HGL   Occurrence   Max Depth
  Node                 Type       Meters   Meters   Meters  days hr:min      Meters
  ---------------------------------------------------------------------------------
  WS01000070           JUNCTION     0.00     0.00     0.00     0  00:00        0.00
  WS01000323           JUNCTION     0.00     0.00     0.00     0  00:00        0.00
  WS01000533           JUNCTION     0.00     0.00     6.86     0  00:00        0.00
  WS01005172           JUNCTION     0.00     0.00     0.00     0  00:00        0.00
  WS01005181           JUNCTION     0.00     0.00     0.00     0  00:00        0.00
  WS01009841           JUNCTION     0.00     0.00     0.00     0  00:00        0.00
  WS02000078           JUNCTION     0.00     0.00     0.00     0  00:00        0.00
  WS02000112           JUNCTION     0.00     0.00     0.00     0  00:00        0.00
  WS02000136           JUNCTION     0.00     0.00     0.00     0  00:00        0.00
  WS02004053           JUNCTION     0.00     0.00     0.00     0  00:00        0.00
  WS02004401           JUNCTION     2.21     2.36     8.36     0  03:11        2.36
  WS02005192           JUNCTION     0.51     1.47     9.34     0  01:37        0.76
  WS02005193           JUNCTION     0.55     1.28     9.10     0  01:37        0.80
  WS02005196           JUNCTION     0.52     1.05     8.90     0  03:22        0.77
  WS02006109           JUNCTION     1.63     1.79     8.41     0  03:10        1.79
  WS02006110           JUNCTION     1.64     1.80     8.40     0  03:10        1.80
  WS02006111           JUNCTION     1.65     1.80     8.38     0  03:00        1.80
  WS02006112           JUNCTION     2.09     2.25     8.37     0  03:00        2.25
  WS02006113           JUNCTION     1.65     1.81     8.40     0  03:00        1.81
  WS02006115           JUNCTION     2.11     2.27     8.37     0  03:00        2.27
  WS02006116           JUNCTION     2.17     2.32     8.36     0  03:11        2.32
  WS02006183           JUNCTION     0.00     0.00     0.00     0  00:00        0.00
  WS02006228           JUNCTION     1.60     1.77     8.42     0  03:10        1.77
  WS02006229           JUNCTION     1.56     1.73     8.42     0  03:10        1.73
  WS02006230           JUNCTION     1.50     1.68     8.43     0  03:10        1.67
  WS02006231           JUNCTION     1.36     1.86     8.76     0  01:31        1.53
  WS02006232           JUNCTION     1.24     2.08     9.11     0  01:31        1.40
  WS02006234           JUNCTION     1.12     1.48     8.64     0  01:32        1.27
  WS02006235           JUNCTION     1.11     1.32     8.49     0  01:33        1.26
  WS02006238           JUNCTION     1.10     1.37     8.55     0  01:32        1.25
  WS02006239           JUNCTION     1.07     1.33     8.54     0  01:33        1.22
  WS02006242           JUNCTION     0.99     1.53     8.83     0  01:33        1.13
  WS02006240           JUNCTION     1.00     1.42     8.71     0  01:33        1.14
  WS02006243           JUNCTION     0.87     1.48     8.90     0  01:33        1.02
  WS02006245           JUNCTION     0.81     1.35     8.84     0  01:34        1.09
  WS02006247           JUNCTION     0.79     1.46     8.97     0  01:34        0.93
  WS02006248           JUNCTION     0.71     0.85     8.44     0  03:10        0.85
  WS02006249           JUNCTION     0.72     1.09     8.69     0  01:37        0.88
  WS02006251           JUNCTION     0.68     2.21     9.88     0  01:37        0.90
  WS02006253           JUNCTION     0.57     0.98     8.78     0  03:22        0.82
  WS02618401           JUNCTION     0.00     0.00     0.00     0  00:00        0.00
  WSA1649              JUNCTION     0.00     0.00     0.00     0  00:00        0.00
  outfall-5            OUTFALL      0.15     0.25     7.91     0  03:10        0.25
  outfall-14           OUTFALL      0.12     0.16     7.82     0  03:11        0.16
  outfall-16           OUTFALL      0.00     0.00     8.39     0  00:00        0.00
  CC-storage           STORAGE      2.68     5.63     8.81     0  02:06        5.63
  
  
  *******************
  Node Inflow Summary
  *******************
  
  -------------------------------------------------------------------------------------------------
                                  Maximum  Maximum                  Lateral       Total        Flow
                                  Lateral    Total  Time of Max      Inflow      Inflow     Balance
                                   Inflow   Inflow   Occurrence      Volume      Volume       Error
  Node                 Type           MLD      MLD  days hr:min    10^6 ltr    10^6 ltr     Percent
  -------------------------------------------------------------------------------------------------
  WS01000070           JUNCTION      0.00     0.00     0  00:00           0           0       0.000 ltr
  WS01000323           JUNCTION      0.00     0.00     0  00:00           0           0       0.000 ltr
  WS01000533           JUNCTION      0.00     0.00     0  00:00           0           0       0.000 ltr
  WS01005172           JUNCTION      0.00     0.00     0  00:00           0           0       0.000 ltr
  WS01005181           JUNCTION      0.00     0.00     0  00:00           0           0       0.000 ltr
  WS01009841           JUNCTION      0.00     0.00     0  00:00           0           0       0.000 ltr
  WS02000078           JUNCTION      0.00     0.00     0  00:00           0           0       0.000 ltr
  WS02000112           JUNCTION      0.00     0.00     0  00:00           0           0       0.000 ltr
  WS02000136           JUNCTION      0.00     0.00     0  00:00           0           0       0.000 ltr
  WS02004053           JUNCTION      0.00     0.00     0  00:00           0           0       0.000 ltr
  WS02004401           JUNCTION      0.05    25.89     0  03:11      0.0086        1.65       1.760
  WS02005192           JUNCTION      9.57    11.00     0  01:36       0.469       0.472       0.555
  WS02005193           JUNCTION      0.09    17.45     0  01:35       0.014       0.514       1.416
  WS02005196           JUNCTION      0.12    14.24     0  01:35      0.0183       0.495       1.373
  WS02006109           JUNCTION      0.08    20.01     0  03:13      0.0129        1.23       1.995
  WS02006110           JUNCTION      0.08    20.08     0  03:13      0.0126        1.22       2.046
  WS02006111           JUNCTION      0.24    25.42     0  03:11      0.0352        1.68       1.215
  WS02006112           JUNCTION      0.18    25.57     0  03:11      0.0263        1.69       1.912
  WS02006113           JUNCTION      9.78    25.23     0  03:11       0.485        1.67       1.416
  WS02006115           JUNCTION      0.08    25.65     0  03:11      0.0129        1.68       2.229
  WS02006116           JUNCTION      0.24    25.84     0  03:11      0.0347        1.68       2.005
  WS02006183           JUNCTION      0.00     0.00     0  00:00           0           0       0.000 ltr
  WS02006228           JUNCTION     19.15    19.93     0  03:13       0.958        1.29       1.392
  WS02006229           JUNCTION      0.13    18.14     0  01:30      0.0193       0.406       3.984
  WS02006230           JUNCTION      0.07    20.35     0  01:30      0.0111       0.416       6.656
  WS02006231           JUNCTION      0.13    23.79     0  01:31      0.0197       0.424       3.392
  WS02006232           JUNCTION      6.88    30.20     0  01:31       0.337       0.625       2.388
  WS02006234           JUNCTION      0.14    29.76     0  01:31      0.0208       0.512       2.701
  WS02006235           JUNCTION      0.14    29.74     0  01:31      0.0215       0.516       1.483
  WS02006238           JUNCTION      0.15    31.46     0  01:31      0.0226       0.522       1.794
  WS02006239           JUNCTION      0.11    35.11     0  01:32      0.0167       0.531       2.965
  WS02006242           JUNCTION      0.08    34.75     0  01:32      0.0124       0.561       3.415
  WS02006240           JUNCTION      0.06    35.04     0  01:32     0.00952       0.542       2.985
  WS02006243           JUNCTION      0.17    34.96     0  01:31      0.0259       0.583       2.853
  WS02006245           JUNCTION      0.07    34.94     0  01:31      0.0109       0.589       2.256
  WS02006247           JUNCTION      7.51    35.05     0  01:31       0.406       0.952       1.154
  WS02006248           JUNCTION      0.12    52.97     0  03:10      0.0185         2.7       0.395
  WS02006249           JUNCTION      0.19    43.01     0  03:10      0.0275        2.01       0.727
  WS02006251           JUNCTION      3.25    42.85     0  03:10       0.169           2       0.713
  WS02006253           JUNCTION      0.11    40.86     0  02:30      0.0166        1.85       0.391
  WS02618401           JUNCTION      0.00     0.00     0  00:00           0           0       0.000 ltr
  WSA1649              JUNCTION      0.00     0.00     0  00:00           0           0       0.000 ltr
  outfall-5            OUTFALL       0.00    53.00     0  03:10           0        2.47       0.000
  outfall-14           OUTFALL       0.00    25.89     0  03:11           0        1.61       0.000
  outfall-16           OUTFALL       0.00     0.00     0  00:00           0           0       0.000 ltr
  CC-storage           STORAGE      29.56    29.56     0  02:49        1.63        1.63      -9.724
  
  
  **********************
  Node Surcharge Summary
  **********************
  
  Surcharging occurs when water rises above the top of the highest conduit.
  ---------------------------------------------------------------------
                                               Max. Height   Min. Depth
                                   Hours       Above Crown    Below Rim
  Node                 Type      Surcharged         Meters       Meters
  ---------------------------------------------------------------------
  WS01000070           JUNCTION        3.83          0.000        0.000
  WS01000323           JUNCTION        3.83          0.000        0.000
  WS01000533           JUNCTION        3.83          0.000        2.147
  WS01005172           JUNCTION        3.83          0.000        0.000
  WS01005181           JUNCTION        3.83          0.000        0.000
  WS01009841           JUNCTION        3.83          0.000        0.000
  WS02000078           JUNCTION        3.83          0.000        0.000
  WS02000112           JUNCTION        3.83          0.000        0.000
  WS02000136           JUNCTION        3.83          0.000        0.000
  WS02004053           JUNCTION        3.83          0.000        0.000
  WS02005192           JUNCTION        0.60          0.865        1.954
  WS02005193           JUNCTION        0.88          0.684        1.933
  WS02005196           JUNCTION        0.70          0.451        2.255
  WS02006109           JUNCTION        2.32          0.995        0.843
  WS02006110           JUNCTION        2.32          1.005        0.840
  WS02006111           JUNCTION        2.33          1.004        0.873
  WS02006112           JUNCTION        2.44          1.254        0.429
  WS02006113           JUNCTION        2.33          1.007        0.926
  WS02006115           JUNCTION        2.46          1.268        1.031
  WS02006116           JUNCTION        2.53          1.324        1.026
  WS02006183           JUNCTION        3.83          0.000        0.000
  WS02006228           JUNCTION        2.32          0.973        1.258
  WS02006229           JUNCTION        2.32          0.934        1.520
  WS02006231           JUNCTION        2.31          1.158        0.385
  WS02006232           JUNCTION        2.30          1.380        0.109
  WS02006234           JUNCTION        2.30          0.776        0.481
  WS02006235           JUNCTION        2.30          0.624        0.670
  WS02006238           JUNCTION        2.30          0.669        0.765
  WS02006239           JUNCTION        2.30          0.626        0.703
  WS02006242           JUNCTION        2.29          0.826        0.023
  WS02006240           JUNCTION        2.29          0.723        0.680
  WS02006243           JUNCTION        2.26          0.780        0.000
  WS02006245           JUNCTION        2.24          0.647        0.208
  WS02006247           JUNCTION        2.24          0.760        0.000
  WS02006249           JUNCTION        1.65          0.388        0.000
  WS02006251           JUNCTION        1.31          1.510        0.000
  WS02006253           JUNCTION        0.49          0.275        2.179
  WS02618401           JUNCTION        3.83          0.000        0.000
  WSA1649              JUNCTION        3.83          0.000        0.000
  
  
  *********************
  Node Flooding Summary
  *********************
  
  Flooding refers to all water that overflows a node, whether it ponds or not.
  --------------------------------------------------------------------------
                                                             Total   Maximum
                                 Maximum   Time of Max       Flood    Ponded
                        Hours       Rate    Occurrence      Volume     Depth
  Node                 Flooded       MLD   days hr:min    10^6 ltr    Meters
  --------------------------------------------------------------------------
  WS02006243              0.01      5.59      0  01:33       0.000     0.000
  WS02006247              0.01     14.56      0  01:34       0.000     0.000
  WS02006249              0.01      5.49      0  01:37       0.000     0.000
  WS02006251              0.01     11.25      0  01:37       0.000     0.000
  CC-storage              0.48     29.56      0  02:49       0.408     0.000
  
  
  **********************
  Storage Volume Summary
  **********************
  
  --------------------------------------------------------------------------------------------------
                         Average     Avg  Evap Exfil       Maximum     Max    Time of Max    Maximum
                          Volume    Pcnt  Pcnt  Pcnt        Volume    Pcnt     Occurrence    Outflow
  Storage Unit           1000 m3    Full  Loss  Loss       1000 m3    Full    days hr:min        MLD
  --------------------------------------------------------------------------------------------------
  CC-storage               0.076      48     0     0         0.159     100       0  02:06      34.56
  
  
  ***********************
  Outfall Loading Summary
  ***********************
  
  ---------------------------------------------------------------------------------------------------------------------------------
                         Flow       Avg       Max       Total         Total         Total         Total         Total         Total
                         Freq      Flow      Flow      Volume           COD         NH3-N            TN            TP            SS
  Outfall Node           Pcnt       MLD       MLD    10^6 ltr            kg            kg            kg            kg            kg
  ---------------------------------------------------------------------------------------------------------------------------------
  outfall-5             91.45     28.27     53.00       2.471       411.004         0.000         0.000         0.000         0.000
  outfall-14            92.18     18.17     25.89       1.615       331.725         0.000         0.000         0.000         0.000
  outfall-16             0.00      0.00      0.00       0.000         0.000         0.000         0.000         0.000         0.000
  ---------------------------------------------------------------------------------------------------------------------------------
  System                61.21     46.44     78.59       4.086       742.729         0.000         0.000         0.000         0.000
  
  
  ********************
  Link Flow Summary
  ********************
  
  -----------------------------------------------------------------------------
                                 Maximum  Time of Max   Maximum    Max/    Max/
                                  |Flow|   Occurrence   |Veloc|    Full    Full
  Link                 Type          MLD  days hr:min     m/sec    Flow   Depth
  -----------------------------------------------------------------------------
  WSL2038              CONDUIT      9.59     0  02:44      0.57    0.48    1.00
  WSL2039              CONDUIT     17.35     0  01:35      1.01    0.89    1.00
  WSL2041              CONDUIT     14.12     0  01:35      0.89    0.69    1.00
  WSL2294              CONDUIT     20.01     0  03:13      0.46    0.67    1.00
  WSL2295              CONDUIT     20.08     0  03:13      0.50    0.90    1.00
  WSL2296              CONDUIT     25.42     0  03:11      0.63    0.14    1.00
  WSL2297              CONDUIT     25.57     0  03:11      0.38    0.49    1.00
  WSL2298              CONDUIT     25.23     0  03:11      0.87    1.16    1.00
  WSL2301              CONDUIT     25.65     0  03:11      0.38    0.24    1.00
  WSL2302              CONDUIT     25.84     0  03:11      0.38    0.32    1.00
  WSL2441              CONDUIT     19.93     0  03:13      0.46    0.51    1.00
  WSL2442              CONDUIT     18.01     0  01:30      0.63    0.46    1.00
  WSL2443              CONDUIT     20.28     0  01:30      0.73    0.32    1.00
  WSL2444              CONDUIT     23.66     0  01:31      1.02    0.38    1.00
  WSL2446              CONDUIT     29.13     0  01:31      1.42    0.50    1.00
  WSL2447              CONDUIT     29.62     0  01:31      1.47    1.52    1.00
  WSL2448              CONDUIT     29.59     0  01:31      1.35    0.83    1.00
  WSL2449              CONDUIT     31.31     0  01:31      1.30    1.09    1.00
  WSL2450              CONDUIT     35.00     0  01:32      1.34    0.73    1.00
  WSL2451              CONDUIT     34.98     0  01:32      1.32    2.28    1.00
  WSL2452              CONDUIT     34.67     0  01:32      1.34    0.66    1.00
  WSL2454              CONDUIT     34.79     0  01:31      1.47    0.81    1.00
  WSL2478              CONDUIT     34.87     0  01:31      1.42    1.23    1.00
  WSL2479              CONDUIT     34.31     0  01:31      1.41    0.65    1.00
  WSL2480              CONDUIT     43.01     0  03:10      1.42    1.99    1.00
  WSL2482              CONDUIT     42.85     0  03:10      1.36    1.12    1.00
  WSL2484              CONDUIT     40.86     0  02:30      1.52    0.58    1.00
  WSL2493              CONDUIT     16.12     0  01:30      0.51    0.27    1.00
  8                    CONDUIT     53.00     0  03:10      7.55    0.70    0.62
  19                   CONDUIT      0.00     0  00:00      0.00    0.00    0.00
  17                   CONDUIT     25.89     0  03:11      6.39    0.34    0.40
  CC-Pump-1            PUMP        17.28     0  02:20              1.00
  CC-Pump-2            PUMP        17.28     0  02:20              1.00
  
  
  ***************************
  Flow Classification Summary
  ***************************
  
  -------------------------------------------------------------------------------------
                      Adjusted    ---------- Fraction of Time in Flow Class ---------- 
                       /Actual         Up    Down  Sub   Sup   Up    Down  Norm  Inlet 
  Conduit               Length    Dry  Dry   Dry   Crit  Crit  Crit  Crit  Ltd   Ctrl  
  -------------------------------------------------------------------------------------
  WSL2038                 1.00   0.00  0.00  0.00  1.00  0.00  0.00  0.00  0.01  0.00
  WSL2039                 1.00   0.00  0.00  0.00  1.00  0.00  0.00  0.00  0.00  0.00
  WSL2041                 1.00   0.00  0.00  0.00  1.00  0.00  0.00  0.00  0.30  0.00
  WSL2294                 1.00   0.00  0.00  0.00  1.00  0.00  0.00  0.00  0.00  0.00
  WSL2295                 1.00   0.00  0.00  0.00  1.00  0.00  0.00  0.00  0.00  0.00
  WSL2296                 1.00   0.00  0.00  0.00  1.00  0.00  0.00  0.00  0.17  0.00
  WSL2297                 1.00   0.00  0.00  0.00  1.00  0.00  0.00  0.00  0.00  0.00
  WSL2298                 1.00   0.00  0.00  0.00  0.98  0.02  0.00  0.00  0.00  0.00
  WSL2301                 1.00   0.00  0.00  0.00  1.00  0.00  0.00  0.00  0.04  0.00
  WSL2302                 1.00   0.00  0.00  0.00  1.00  0.00  0.00  0.00  0.01  0.00
  WSL2441                 1.00   0.00  0.00  0.00  1.00  0.00  0.00  0.00  0.00  0.00
  WSL2442                 1.00   0.00  0.00  0.00  1.00  0.00  0.00  0.00  0.17  0.00
  WSL2443                 1.00   0.00  0.00  0.00  1.00  0.00  0.00  0.00  0.31  0.00
  WSL2444                 1.00   0.00  0.00  0.00  0.95  0.05  0.00  0.00  0.23  0.00
  WSL2446                 1.00   0.00  0.00  0.00  0.95  0.05  0.00  0.00  0.00  0.00
  WSL2447                 1.00   0.00  0.00  0.00  1.00  0.00  0.00  0.00  0.00  0.00
  WSL2448                 1.00   0.00  0.00  0.00  1.00  0.00  0.00  0.00  0.00  0.00
  WSL2449                 1.00   0.00  0.00  0.00  1.00  0.00  0.00  0.00  0.02  0.00
  WSL2450                 1.00   0.00  0.00  0.00  1.00  0.00  0.00  0.00  0.36  0.00
  WSL2451                 1.00   0.00  0.00  0.00  1.00  0.00  0.00  0.00  0.00  0.00
  WSL2452                 1.00   0.00  0.00  0.00  1.00  0.00  0.00  0.00  0.35  0.00
  WSL2454                 1.00   0.00  0.00  0.00  1.00  0.00  0.00  0.00  0.02  0.00
  WSL2478                 1.00   0.00  0.00  0.00  1.00  0.00  0.00  0.00  0.00  0.00
  WSL2479                 1.00   0.00  0.00  0.00  1.00  0.00  0.00  0.00  0.36  0.00
  WSL2480                 1.00   0.00  0.00  0.00  1.00  0.00  0.00  0.00  0.00  0.00
  WSL2482                 1.00   0.00  0.00  0.00  1.00  0.00  0.00  0.00  0.36  0.00
  WSL2484                 1.00   0.00  0.00  0.00  1.00  0.00  0.00  0.00  0.34  0.00
  WSL2493                 1.00   0.00  0.00  0.00  1.00  0.00  0.00  0.00  0.05  0.00
  8                       1.00   0.09  0.00  0.00  0.00  0.91  0.00  0.00  0.09  0.00
  19                      1.00   1.00  0.00  0.00  0.00  0.00  0.00  0.00  0.00  0.00
  17                      1.00   0.08  0.00  0.00  0.00  0.92  0.00  0.00  0.02  0.00
  
  
  *************************
  Conduit Surcharge Summary
  *************************
  
  ----------------------------------------------------------------------------
                                                           Hours        Hours 
                         --------- Hours Full --------   Above Full   Capacity
  Conduit                Both Ends  Upstream  Dnstream   Normal Flow   Limited
  ----------------------------------------------------------------------------
  WSL2038                     0.59      0.60      0.70      0.01         0.01
  WSL2039                     0.88      0.88      0.93      0.01         0.01
  WSL2041                     0.70      0.70      0.88      0.01         0.01
  WSL2294                     2.32      2.32      2.32      0.01         0.01
  WSL2295                     2.32      2.32      2.33      0.01         0.02
  WSL2296                     2.33      2.33      2.74      0.01         0.01
  WSL2297                     2.44      2.44      2.46      0.01         0.01
  WSL2298                     2.33      2.33      2.33      0.96         0.98
  WSL2301                     2.46      2.46      2.53      0.01         0.01
  WSL2302                     2.53      2.53      2.60      0.01         0.01
  WSL2441                     2.32      2.32      2.32      0.01         0.01
  WSL2442                     2.32      2.32      2.32      0.01         0.01
  WSL2443                     2.31      2.31      2.32      0.01         0.01
  WSL2444                     2.30      2.30      2.31      0.01         0.01
  WSL2446                     2.30      2.30      2.30      0.01         0.01
  WSL2447                     2.30      2.30      2.30      0.04         0.01
  WSL2448                     2.30      2.30      2.30      0.01         0.01
  WSL2449                     2.30      2.30      2.30      0.01         0.01
  WSL2450                     2.29      2.29      2.30      0.01         0.01
  WSL2451                     2.29      2.29      2.29      0.09         0.01
  WSL2452                     2.26      2.26      2.29      0.01         0.01
  WSL2454                     2.24      2.24      2.26      0.01         0.01
  WSL2478                     2.24      2.24      2.24      0.05         0.01
  WSL2479                     1.72      1.72      2.24      0.01         0.01
  WSL2480                     1.65      1.65      1.72      1.00         0.94
  WSL2482                     1.31      1.31      1.65      0.41         0.42
  WSL2484                     0.49      0.49      1.31      0.01         0.01
  WSL2493                     2.32      2.32      2.32      0.01         0.01
  
  
  ***************
  Pumping Summary
  ***************
  
  ---------------------------------------------------------------------------------------------------------
                                                  Min       Avg       Max     Total     Power    % Time Off
                        Percent   Number of      Flow      Flow      Flow    Volume     Usage    Pump Curve
  Pump                 Utilized   Start-Ups       MLD       MLD       MLD  10^6 ltr     Kw-hr    Low   High
  ---------------------------------------------------------------------------------------------------------
  CC-Pump-1               39.11           3      0.00     11.20     17.28     0.663      5.95    0.0    0.0
  CC-Pump-2               39.11           3      0.00     11.20     17.28     0.663      5.95    0.0    0.0
  
  
  ***************************
  Link Pollutant Load Summary
  ***************************
  
  ------------------------------------------------------------------------------------------
                                 COD         NH3-N            TN            TP            SS
  Link                            kg            kg            kg            kg            kg
  ------------------------------------------------------------------------------------------
  WSL2038                    106.593         0.000         0.000         0.000         0.000
  WSL2039                    111.746         0.000         0.000         0.000         0.000
  WSL2041                    109.290         0.000         0.000         0.000         0.000
  WSL2294                    349.596         0.000         0.000         0.000         0.000
  WSL2295                    344.866         0.000         0.000         0.000         0.000
  WSL2296                    346.147         0.000         0.000         0.000         0.000
  WSL2297                    342.876         0.000         0.000         0.000         0.000
  WSL2298                    343.535         0.000         0.000         0.000         0.000
  WSL2301                    339.041         0.000         0.000         0.000         0.000
  WSL2302                    337.000         0.000         0.000         0.000         0.000
  WSL2441                    353.941         0.000         0.000         0.000         0.000
  WSL2442                     51.355         0.000         0.000         0.000         0.000
  WSL2443                     43.476         0.000         0.000         0.000         0.000
  WSL2444                     36.337         0.000         0.000         0.000         0.000
  WSL2446                     37.250         0.000         0.000         0.000         0.000
  WSL2447                     42.369         0.000         0.000         0.000         0.000
  WSL2448                     44.592         0.000         0.000         0.000         0.000
  WSL2449                     47.874         0.000         0.000         0.000         0.000
  WSL2450                     52.240         0.000         0.000         0.000         0.000
  WSL2451                     56.591         0.000         0.000         0.000         0.000
  WSL2452                     60.959         0.000         0.000         0.000         0.000
  WSL2454                     64.375         0.000         0.000         0.000         0.000
  WSL2478                     66.433         0.000         0.000         0.000         0.000
  WSL2479                    131.122         0.000         0.000         0.000         0.000
  WSL2480                    339.891         0.000         0.000         0.000         0.000
  WSL2482                    335.897         0.000         0.000         0.000         0.000
  WSL2484                    287.215         0.000         0.000         0.000         0.000
  WSL2493                     63.086         0.000         0.000         0.000         0.000
  8                          411.004         0.000         0.000         0.000         0.000
  19                           0.000         0.000         0.000         0.000         0.000
  17                         331.725         0.000         0.000         0.000         0.000
  CC-Pump-1                   86.796         0.000         0.000         0.000         0.000
  CC-Pump-2                   86.796         0.000         0.000         0.000         0.000
  

  Analysis begun on:  Mon Aug 19 10:42:41 2019
  Analysis ended on:  Mon Aug 19 10:42:42 2019
  Total elapsed time: 00:00:01