
  EPA STORM WATER MANAGEMENT MODEL - VERSION 5.1 (Build 5.3.0.dev0)
  --------------------------------------------------------------

  
  *********************************************************
  NOTE: The summary statistics displayed in this report are
  based on results found at every computational time step,  
  not just on results from each reporting time step.
  *********************************************************
  
  ****************
  Analysis Options
  ****************
  Flow Units ............... MLD
  Process Models:
    Rainfall/Runoff ........ YES
    RDII ................... NO
    Snowmelt ............... NO
    Groundwater ............ NO
    Flow Routing ........... YES
    Ponding Allowed ........ NO
    Water Quality .......... YES
  Infiltration Method ...... GREEN_AMPT
  Flow Routing Method ...... DYNWAVE
  Surcharge Method ......... EXTRAN
  Starting Date ............ 08/28/2015 08:00:00
  Ending Date .............. 08/28/2015 12:00:00
  Antecedent Dry Days ...... 4.0
  Report Time Step ......... 00:01:00
  Wet Time Step ............ 00:01:00
  Dry Time Step ............ 00:01:00
  Routing Time Step ........ 5.00 sec
  Variable Time Step ....... YES
  Maximum Trials ........... 8
  Number of Threads ........ 1
  Head Tolerance ........... 0.001500 m
  
  
  **************************        Volume         Depth
  Runoff Quantity Continuity     hectare-m            mm
  **************************     ---------       -------
  Total Precipitation ......         0.386         6.242
  Evaporation Loss .........         0.000         0.000
  Infiltration Loss ........         0.210         3.388
  Surface Runoff ...........         0.032         0.524
  Final Storage ............         0.144         2.330
  Continuity Error (%) .....        -0.005
  
  
  **************************           COD         NH3-N            TN            TP            SS
  Runoff Quality Continuity             kg            kg            kg            kg            kg
  **************************    ----------    ----------    ----------    ----------    ----------
  Initial Buildup ..........      2504.640         0.000         0.000         0.000         0.000
  Surface Buildup ..........        20.162         0.000         0.000         0.000         0.000
  Wet Deposition ...........         0.000         0.000         0.000         0.000         0.000
  Sweeping Removal .........         0.000         0.000         0.000         0.000         0.000
  Infiltration Loss ........         6.655         0.000         0.000         0.000         0.000
  BMP Removal ..............         0.000         0.000         0.000         0.000         0.000
  Surface Runoff ...........        26.235         0.000         0.000         0.000         0.000
  Remaining Buildup ........      2490.979         0.000         0.000         0.000         0.000
  Continuity Error (%) .....         0.037         0.000         0.000         0.000         0.000
  
  
  **************************        Volume        Volume
  Flow Routing Continuity        hectare-m      10^6 ltr
  **************************     ---------     ---------
  Dry Weather Inflow .......         0.000         0.000
  Wet Weather Inflow .......         0.032         0.315
  Groundwater Inflow .......         0.000         0.000
  RDII Inflow ..............         0.000         0.000
  External Inflow ..........         0.054         0.536
  External Outflow .........         0.065         0.655
  Flooding Loss ............         0.000         0.000
  Evaporation Loss .........         0.000         0.000
  Exfiltration Loss ........         0.000         0.000
  Initial Stored Volume ....         0.000         0.000
  Final Stored Volume ......         0.046         0.465
  Continuity Error (%) .....       -31.482
  
  
  **************************           COD         NH3-N            TN            TP            SS
  Quality Routing Continuity            kg            kg            kg            kg            kg
  **************************    ----------    ----------    ----------    ----------    ----------
  Dry Weather Inflow .......         0.000         0.000         0.000         0.000         0.000
  Wet Weather Inflow .......        25.309         0.000         0.000         0.000         0.000
  Groundwater Inflow .......         0.000         0.000         0.000         0.000         0.000
  RDII Inflow ..............         0.000         0.000         0.000         0.000         0.000
  External Inflow ..........        89.519         0.000         0.000         0.000         0.000
  External Outflow .........        33.823         0.000         0.000         0.000         0.000
  Flooding Loss ............         0.000         0.000         0.000         0.000         0.000
  Exfiltration Loss ........         0.000         0.000         0.000         0.000         0.000
  Mass Reacted .............         0.000         0.000         0.000         0.000         0.000
  Initial Stored Mass ......         0.000         0.000         0.000         0.000         0.000
  Final Stored Mass ........        40.944         0.000         0.000         0.000         0.000
  Continuity Error (%) .....        34.887         0.000         0.000         0.000         0.000
  
  
  *************************
  Highest Continuity Errors
  *************************
  Node WS02006115 (10.77%)
  Node WS02006116 (10.15%)
  Node WS02005196 (9.61%)
  Node WS02004401 (9.55%)
  Node WS02005193 (8.96%)
  
  
  ***************************
  Time-Step Critical Elements
  ***************************
  Link 8 (74.74%)
  Link WSL2448 (18.06%)
  Link WSL2480 (1.81%)
  Link 17 (1.05%)
  
  
  ********************************
  Highest Flow Instability Indexes
  ********************************
  Link WSL2301 (5)
  Link WSL2302 (5)
  Link WSL2297 (5)
  Link WSL2296 (5)
  Link WSL2298 (4)
  
  
  *************************
  Routing Time Step Summary
  *************************
  Minimum Time Step           :     0.50 sec
  Average Time Step           :     1.34 sec
  Maximum Time Step           :     5.00 sec
  Percent in Steady State     :     0.00
  Average Iterations per Step :     2.19
  Percent Not Converging      :     0.94
  
  
  ***************************
  Subcatchment Runoff Summary
  ***************************
  
  ------------------------------------------------------------------------------------------------------------------------------
                            Total      Total      Total      Total     Imperv       Perv      Total       Total     Peak  Runoff
                           Precip      Runon       Evap      Infil     Runoff     Runoff     Runoff      Runoff   Runoff   Coeff
  Subcatchment                 mm         mm         mm         mm         mm         mm         mm    10^6 ltr      MLD
  ------------------------------------------------------------------------------------------------------------------------------
  1                          6.24       2.46       0.00       3.64       1.61       0.14       1.75        0.02     0.77   0.201
  2                          6.24       0.00       0.00       3.32       0.99       0.02       1.01        0.03     1.11   0.162
  3                          6.24       0.00       0.00       3.32       0.92       0.02       0.94        0.05     1.62   0.150
  35                         6.24       0.00       0.00       3.32       1.00       0.02       1.03        0.03     1.01   0.165
  36                         6.24       1.72       0.00       3.55       1.18       0.05       1.22        0.07     2.72   0.154
  40                         6.24       0.53       0.00       3.40       1.06       0.03       1.09        0.04     1.45   0.160
  41                         6.24       0.00       0.00       3.32       1.07       0.03       1.10        0.02     0.67   0.176
  42                         6.24       0.00       0.00       3.32       1.05       0.03       1.07        0.02     0.78   0.172
  43                         6.24       0.00       0.00       3.32       1.26       0.07       1.33        0.00     0.14   0.212
  44                         6.24      20.27       0.00       5.14       5.74       3.30       9.04        0.03     1.68   0.341
  45                         6.24       0.00       0.00       3.32       1.15       0.04       1.19        0.01     0.37   0.191
  46                         6.24       1.51       0.00       3.53       1.34       0.07       1.41        0.03     1.04   0.182
  47                         6.24       0.00       0.00       3.32       1.14       0.04       1.18        0.01     0.40   0.189
  48                         6.24       0.81       0.00       3.44       1.25       0.06       1.31        0.02     0.67   0.186
  55                         6.24       1.21       0.00       3.50       1.42       0.10       1.52        0.01     0.41   0.204
  56                         6.24       1.60       0.00       3.54       1.35       0.08       1.43        0.03     1.06   0.182
  57                         6.24       0.00       0.00       3.32       0.92       0.02       0.94        0.05     1.59   0.151
  59                         6.24       0.00       0.00       3.32       1.17       0.04       1.22        0.01     0.31   0.195
  60                         6.24       2.64       0.00       3.68       1.78       0.23       2.02        0.01     0.36   0.227
  61                         6.24       0.00       0.00       3.32       0.70       0.01       0.71        0.13     4.85   0.114
  64                         6.24       0.00       0.00       3.32       1.13       0.04       1.17        0.01     0.43   0.187
  
  
  ****************************
  Subcatchment Washoff Summary
  ****************************
  
  ------------------------------------------------------------------------------------------
                                 COD         NH3-N            TN            TP            SS
  Subcatchment                    kg            kg            kg            kg            kg
  ------------------------------------------------------------------------------------------
  1                            0.605         0.000         0.000         0.000         0.000
  2                            0.000         0.000         0.000         0.000         0.000
  3                            0.000         0.000         0.000         0.000         0.000
  35                           2.057         0.000         0.000         0.000         0.000
  36                           7.367         0.000         0.000         0.000         0.000
  40                           3.282         0.000         0.000         0.000         0.000
  41                           1.463         0.000         0.000         0.000         0.000
  42                           1.659         0.000         0.000         0.000         0.000
  43                           0.365         0.000         0.000         0.000         0.000
  44                          14.763         0.000         0.000         0.000         0.000
  45                           0.881         0.000         0.000         0.000         0.000
  46                           3.214         0.000         0.000         0.000         0.000
  47                           0.937         0.000         0.000         0.000         0.000
  48                           1.869         0.000         0.000         0.000         0.000
  55                           1.315         0.000         0.000         0.000         0.000
  56                           3.353         0.000         0.000         0.000         0.000
  57                           2.955         0.000         0.000         0.000         0.000
  59                           0.745         0.000         0.000         0.000         0.000
  60                           1.498         0.000         0.000         0.000         0.000
  61                           6.598         0.000         0.000         0.000         0.000
  64                           0.998         0.000         0.000         0.000         0.000
  ------------------------------------------------------------------------------------------
  System                      55.925         0.000         0.000         0.000         0.000
  
  
  ******************
  Node Depth Summary
  ******************
  
  ---------------------------------------------------------------------------------
                                 Average  Maximum  Maximum  Time of Max    Reported
                                   Depth    Depth      HGL   Occurrence   Max Depth
  Node                 Type       Meters   Meters   Meters  days hr:min      Meters
  ---------------------------------------------------------------------------------
  WS01000070           JUNCTION     0.00     0.00     0.00     0  00:00        0.00
  WS01000323           JUNCTION     0.00     0.00     0.00     0  00:00        0.00
  WS01000533           JUNCTION     0.00     0.00     6.86     0  00:00        0.00
  WS01005172           JUNCTION     0.00     0.00     0.00     0  00:00        0.00
  WS01005181           JUNCTION     0.00     0.00     0.00     0  00:00        0.00
  WS01009841           JUNCTION     0.00     0.00     0.00     0  00:00        0.00
  WS02000078           JUNCTION     0.00     0.00     0.00     0  00:00        0.00
  WS02000112           JUNCTION     0.00     0.00     0.00     0  00:00        0.00
  WS02000136           JUNCTION     0.00     0.00     0.00     0  00:00        0.00
  WS02004053           JUNCTION     0.00     0.00     0.00     0  00:00        0.00
  WS02004401           JUNCTION     2.00     2.29     8.29     0  02:22        2.29
  WS02005192           JUNCTION     0.35     0.45     8.32     0  02:22        0.45
  WS02005193           JUNCTION     0.40     0.50     8.32     0  02:22        0.50
  WS02005196           JUNCTION     0.37     0.47     8.32     0  02:22        0.47
  WS02006109           JUNCTION     1.42     1.68     8.30     0  02:22        1.68
  WS02006110           JUNCTION     1.43     1.70     8.30     0  02:22        1.70
  WS02006111           JUNCTION     1.44     1.72     8.30     0  02:22        1.72
  WS02006112           JUNCTION     1.88     2.18     8.30     0  02:22        2.17
  WS02006113           JUNCTION     1.44     1.71     8.30     0  02:22        1.71
  WS02006115           JUNCTION     1.90     2.19     8.29     0  02:22        2.19
  WS02006116           JUNCTION     1.96     2.25     8.29     0  02:22        2.25
  WS02006183           JUNCTION     0.00     0.00     0.00     0  00:00        0.00
  WS02006228           JUNCTION     1.39     1.65     8.30     0  02:22        1.65
  WS02006229           JUNCTION     1.35     1.61     8.30     0  02:22        1.61
  WS02006230           JUNCTION     1.30     1.55     8.30     0  02:22        1.55
  WS02006231           JUNCTION     1.16     1.40     8.30     0  02:22        1.40
  WS02006232           JUNCTION     1.05     1.27     8.30     0  02:22        1.27
  WS02006234           JUNCTION     0.93     1.14     8.30     0  02:22        1.14
  WS02006235           JUNCTION     0.93     1.13     8.30     0  02:22        1.13
  WS02006238           JUNCTION     0.92     1.12     8.30     0  02:22        1.12
  WS02006239           JUNCTION     0.90     1.10     8.31     0  02:22        1.09
  WS02006242           JUNCTION     0.83     1.01     8.31     0  02:22        1.01
  WS02006240           JUNCTION     0.83     1.02     8.31     0  02:22        1.02
  WS02006243           JUNCTION     0.72     0.89     8.31     0  02:22        0.89
  WS02006245           JUNCTION     0.66     0.82     8.31     0  02:22        0.82
  WS02006247           JUNCTION     0.65     0.80     8.31     0  02:22        0.80
  WS02006248           JUNCTION     0.58     0.72     8.31     0  02:22        0.72
  WS02006249           JUNCTION     0.58     0.71     8.31     0  02:22        0.71
  WS02006251           JUNCTION     0.53     0.65     8.32     0  02:22        0.65
  WS02006253           JUNCTION     0.42     0.52     8.32     0  02:22        0.52
  WS02618401           JUNCTION     0.00     0.00     0.00     0  00:00        0.00
  WSA1649              JUNCTION     0.00     0.00     0.00     0  00:00        0.00
  outfall-5            OUTFALL      0.08     0.12     7.78     0  02:22        0.12
  outfall-14           OUTFALL      0.06     0.09     7.75     0  02:22        0.09
  outfall-16           OUTFALL      0.00     0.00     8.39     0  00:00        0.00
  CC-storage           STORAGE      0.00     0.00     3.18     0  00:00        0.00
  
  
  *******************
  Node Inflow Summary
  *******************
  
  -------------------------------------------------------------------------------------------------
                                  Maximum  Maximum                  Lateral       Total        Flow
                                  Lateral    Total  Time of Max      Inflow      Inflow     Balance
                                   Inflow   Inflow   Occurrence      Volume      Volume       Error
  Node                 Type           MLD      MLD  days hr:min    10^6 ltr    10^6 ltr     Percent
  -------------------------------------------------------------------------------------------------
  WS01000070           JUNCTION      0.00     0.00     0  00:00           0           0       0.000 ltr
  WS01000323           JUNCTION      0.00     0.00     0  00:00           0           0       0.000 ltr
  WS01000533           JUNCTION      0.00     0.00     0  00:00           0           0       0.000 ltr
  WS01005172           JUNCTION      0.00     0.00     0  00:00           0           0       0.000 ltr
  WS01005181           JUNCTION      0.00     0.00     0  00:00           0           0       0.000 ltr
  WS01009841           JUNCTION      0.00     0.00     0  00:00           0           0       0.000 ltr
  WS02000078           JUNCTION      0.00     0.00     0  00:00           0           0       0.000 ltr
  WS02000112           JUNCTION      0.00     0.00     0  00:00           0           0       0.000 ltr
  WS02000136           JUNCTION      0.00     0.00     0  00:00           0           0       0.000 ltr
  WS02004053           JUNCTION      0.00     0.00     0  00:00           0           0       0.000 ltr
  WS02004401           JUNCTION      0.05     9.19     0  02:22     0.00533       0.296      10.554
  WS02005192           JUNCTION      1.68     1.98     0  01:29      0.0571      0.0581       4.903
  WS02005193           JUNCTION      0.09     4.73     0  01:29     0.00895      0.0842       9.846
  WS02005196           JUNCTION      0.12     3.51     0  01:29      0.0118      0.0725      10.633
  WS02006109           JUNCTION      0.08     6.64     0  02:22     0.00821       0.363       7.155
  WS02006110           JUNCTION      0.08     6.72     0  02:22     0.00802       0.345       7.659
  WS02006111           JUNCTION      0.24     8.69     0  02:22       0.023       0.375       5.832
  WS02006112           JUNCTION      0.18     8.85     0  02:22      0.0171       0.371       9.591
  WS02006113           JUNCTION      1.76     8.48     0  02:22      0.0632       0.378       6.667
  WS02006115           JUNCTION      0.08     8.93     0  02:22      0.0082        0.35      12.070
  WS02006116           JUNCTION      0.24     9.13     0  02:22      0.0227       0.338      11.302
  WS02006183           JUNCTION      0.00     0.00     0  00:00           0           0       0.000 ltr
  WS02006228           JUNCTION      1.82     6.56     0  02:22      0.0502       0.377       5.035
  WS02006229           JUNCTION      0.13     6.14     0  00:13      0.0124       0.348       4.889
  WS02006230           JUNCTION      0.07     6.06     0  00:12     0.00704       0.356       7.722
  WS02006231           JUNCTION      0.13     5.98     0  00:47      0.0128       0.357       4.467
  WS02006232           JUNCTION      1.18     5.82     0  00:12      0.0415       0.361       4.473
  WS02006234           JUNCTION      0.14     5.74     0  00:11      0.0134       0.333       4.311
  WS02006235           JUNCTION      0.14     5.60     0  00:11      0.0139       0.326       2.526
  WS02006238           JUNCTION      0.15     5.46     0  00:11      0.0147       0.321       3.257
  WS02006239           JUNCTION      0.11     5.34     0  00:10      0.0108        0.32       5.033
  WS02006242           JUNCTION      0.08     5.21     0  01:06     0.00787       0.332       5.868
  WS02006240           JUNCTION      0.06     5.24     0  00:09     0.00597       0.323       5.353
  WS02006243           JUNCTION      0.17     5.35     0  01:10      0.0168       0.339       5.320
  WS02006245           JUNCTION      0.07     5.36     0  01:11     0.00687       0.333       4.129
  WS02006247           JUNCTION      0.91     5.59     0  01:13      0.0363       0.337       3.500
  WS02006248           JUNCTION      0.12    15.50     0  02:22      0.0119       0.703       1.540
  WS02006249           JUNCTION      0.19    15.39     0  02:22      0.0179       0.702       2.133
  WS02006251           JUNCTION      0.46    15.24     0  02:22      0.0182       0.698       2.141
  WS02006253           JUNCTION      0.11    14.81     0  02:22      0.0107       0.698       1.083
  WS02618401           JUNCTION      0.00     0.00     0  00:00           0           0       0.000 ltr
  WSA1649              JUNCTION      0.00     0.00     0  00:00           0           0       0.000 ltr
  outfall-5            OUTFALL       0.00    13.98     0  02:22           0       0.396       0.000
  outfall-14           OUTFALL       0.00     9.18     0  02:22           0       0.259       0.000
  outfall-16           OUTFALL       0.00     0.00     0  00:00           0           0       0.000 ltr
  CC-storage           STORAGE       6.44     6.44     0  02:22       0.308       0.308     -50.000
  
  
  **********************
  Node Surcharge Summary
  **********************
  
  Surcharging occurs when water rises above the top of the highest conduit.
  ---------------------------------------------------------------------
                                               Max. Height   Min. Depth
                                   Hours       Above Crown    Below Rim
  Node                 Type      Surcharged         Meters       Meters
  ---------------------------------------------------------------------
  WS01000070           JUNCTION        2.37          0.000        0.000
  WS01000323           JUNCTION        2.37          0.000        0.000
  WS01000533           JUNCTION        2.37          0.000        2.147
  WS01005172           JUNCTION        2.37          0.000        0.000
  WS01005181           JUNCTION        2.37          0.000        0.000
  WS01009841           JUNCTION        2.37          0.000        0.000
  WS02000078           JUNCTION        2.37          0.000        0.000
  WS02000112           JUNCTION        2.37          0.000        0.000
  WS02000136           JUNCTION        2.37          0.000        0.000
  WS02004053           JUNCTION        2.37          0.000        0.000
  WS02006109           JUNCTION        1.34          0.880        0.958
  WS02006110           JUNCTION        1.36          0.899        0.946
  WS02006111           JUNCTION        1.38          0.916        0.961
  WS02006112           JUNCTION        1.58          1.175        0.508
  WS02006113           JUNCTION        1.37          0.908        1.025
  WS02006115           JUNCTION        1.59          1.194        1.105
  WS02006116           JUNCTION        1.65          1.254        1.096
  WS02006183           JUNCTION        2.37          0.000        0.000
  WS02006228           JUNCTION        1.33          0.851        1.380
  WS02006229           JUNCTION        1.31          0.811        1.643
  WS02006231           JUNCTION        1.23          0.703        0.840
  WS02006232           JUNCTION        1.15          0.574        0.915
  WS02006234           JUNCTION        1.06          0.444        0.813
  WS02006235           JUNCTION        1.06          0.435        0.859
  WS02006238           JUNCTION        1.05          0.425        1.009
  WS02006239           JUNCTION        1.04          0.395        0.934
  WS02006242           JUNCTION        0.99          0.306        0.543
  WS02006240           JUNCTION        1.00          0.315        1.088
  WS02006243           JUNCTION        0.92          0.186        0.594
  WS02006245           JUNCTION        0.90          0.116        0.739
  WS02006247           JUNCTION        0.90          0.096        0.664
  WS02006249           JUNCTION        0.27          0.012        0.376
  WS02618401           JUNCTION        2.37          0.000        0.000
  WSA1649              JUNCTION        2.37          0.000        0.000
  
  
  *********************
  Node Flooding Summary
  *********************
  
  No nodes were flooded.
  
  
  **********************
  Storage Volume Summary
  **********************
  
  --------------------------------------------------------------------------------------------------
                         Average     Avg  Evap Exfil       Maximum     Max    Time of Max    Maximum
                          Volume    Pcnt  Pcnt  Pcnt        Volume    Pcnt     Occurrence    Outflow
  Storage Unit           1000 m3    Full  Loss  Loss       1000 m3    Full    days hr:min        MLD
  --------------------------------------------------------------------------------------------------
  CC-storage               0.000       0     0     0         0.000       0       0  00:00      12.87
  
  
  ***********************
  Outfall Loading Summary
  ***********************
  
  ---------------------------------------------------------------------------------------------------------------------------------
                         Flow       Avg       Max       Total         Total         Total         Total         Total         Total
                         Freq      Flow      Flow      Volume           COD         NH3-N            TN            TP            SS
  Outfall Node           Pcnt       MLD       MLD    10^6 ltr            kg            kg            kg            kg            kg
  ---------------------------------------------------------------------------------------------------------------------------------
  outfall-5             77.63     10.71     13.98       0.396         6.885         0.000         0.000         0.000         0.000
  outfall-14            77.29      7.04      9.18       0.259        26.944         0.000         0.000         0.000         0.000
  outfall-16             0.00      0.00      0.00       0.000         0.000         0.000         0.000         0.000         0.000
  ---------------------------------------------------------------------------------------------------------------------------------
  System                51.64     17.75     23.16       0.655        33.829         0.000         0.000         0.000         0.000
  
  
  ********************
  Link Flow Summary
  ********************
  
  -----------------------------------------------------------------------------
                                 Maximum  Time of Max   Maximum    Max/    Max/
                                  |Flow|   Occurrence   |Veloc|    Full    Full
  Link                 Type          MLD  days hr:min     m/sec    Flow   Depth
  -----------------------------------------------------------------------------
  WSL2038              CONDUIT      1.91     0  01:31      0.23    0.10    0.77
  WSL2039              CONDUIT      4.63     0  01:29      0.43    0.24    0.85
  WSL2041              CONDUIT      2.92     0  01:29      0.23    0.14    0.81
  WSL2294              CONDUIT      6.64     0  02:22      0.65    0.22    1.00
  WSL2295              CONDUIT      6.72     0  02:22      0.72    0.30    1.00
  WSL2296              CONDUIT      8.69     0  02:22      1.08    0.05    1.00
  WSL2297              CONDUIT      8.85     0  02:22      0.57    0.17    1.00
  WSL2298              CONDUIT      8.48     0  02:22      1.20    0.39    1.00
  WSL2301              CONDUIT      8.93     0  02:22      0.38    0.08    1.00
  WSL2302              CONDUIT      9.13     0  02:22      0.23    0.11    1.00
  WSL2441              CONDUIT      6.56     0  02:22      0.72    0.17    1.00
  WSL2442              CONDUIT      6.01     0  00:13      0.89    0.15    1.00
  WSL2443              CONDUIT      5.99     0  00:12      1.02    0.09    1.00
  WSL2444              CONDUIT      5.85     0  00:47      1.18    0.09    1.00
  WSL2446              CONDUIT      5.74     0  00:12      1.14    0.10    1.00
  WSL2447              CONDUIT      5.60     0  00:11      0.91    0.29    1.00
  WSL2448              CONDUIT      5.46     0  00:11      0.76    0.15    1.00
  WSL2449              CONDUIT      5.31     0  00:11      0.71    0.19    1.00
  WSL2450              CONDUIT      5.23     0  00:10      0.84    0.11    1.00
  WSL2451              CONDUIT      5.18     0  00:09      0.76    0.34    1.00
  WSL2452              CONDUIT      5.13     0  01:06      0.86    0.10    1.00
  WSL2454              CONDUIT      5.18     0  01:10      0.95    0.12    1.00
  WSL2478              CONDUIT      5.29     0  01:11      0.86    0.19    1.00
  WSL2479              CONDUIT      5.34     0  01:13      0.83    0.10    1.00
  WSL2480              CONDUIT     15.39     0  02:22      0.85    0.71    1.00
  WSL2482              CONDUIT     15.23     0  02:22      0.86    0.40    0.97
  WSL2484              CONDUIT     14.78     0  02:22      1.35    0.21    0.84
  WSL2493              CONDUIT      6.08     0  00:15      0.78    0.10    1.00
  8                    CONDUIT     13.98     0  02:22      5.32    0.18    0.29
  19                   CONDUIT      0.00     0  00:00      0.00    0.00    0.00
  17                   CONDUIT      9.18     0  02:22      4.77    0.12    0.23
  CC-Pump-1            PUMP         6.44     0  02:22              0.37
  CC-Pump-2            PUMP         6.44     0  02:22              0.37
  
  
  ***************************
  Flow Classification Summary
  ***************************
  
  -------------------------------------------------------------------------------------
                      Adjusted    ---------- Fraction of Time in Flow Class ---------- 
                       /Actual         Up    Down  Sub   Sup   Up    Down  Norm  Inlet 
  Conduit               Length    Dry  Dry   Dry   Crit  Crit  Crit  Crit  Ltd   Ctrl  
  -------------------------------------------------------------------------------------
  WSL2038                 1.00   0.00  0.00  0.00  1.00  0.00  0.00  0.00  0.00  0.00
  WSL2039                 1.00   0.00  0.00  0.00  1.00  0.00  0.00  0.00  0.00  0.00
  WSL2041                 1.00   0.00  0.00  0.00  1.00  0.00  0.00  0.00  0.00  0.00
  WSL2294                 1.00   0.00  0.00  0.00  1.00  0.00  0.00  0.00  0.00  0.00
  WSL2295                 1.00   0.00  0.00  0.00  1.00  0.00  0.00  0.00  0.00  0.00
  WSL2296                 1.00   0.00  0.00  0.00  0.99  0.01  0.00  0.00  0.19  0.00
  WSL2297                 1.00   0.00  0.00  0.00  1.00  0.00  0.00  0.00  0.00  0.00
  WSL2298                 1.00   0.00  0.00  0.00  0.96  0.04  0.00  0.00  0.00  0.00
  WSL2301                 1.00   0.00  0.00  0.00  1.00  0.00  0.00  0.00  0.06  0.00
  WSL2302                 1.00   0.00  0.00  0.00  1.00  0.00  0.00  0.00  0.02  0.00
  WSL2441                 1.00   0.00  0.00  0.00  1.00  0.00  0.00  0.00  0.00  0.00
  WSL2442                 1.00   0.00  0.00  0.00  1.00  0.00  0.00  0.00  0.02  0.00
  WSL2443                 1.00   0.00  0.00  0.00  1.00  0.00  0.00  0.00  0.09  0.00
  WSL2444                 1.00   0.00  0.00  0.00  0.89  0.11  0.00  0.00  0.06  0.00
  WSL2446                 1.00   0.00  0.00  0.00  0.87  0.13  0.00  0.00  0.32  0.00
  WSL2447                 1.00   0.00  0.00  0.00  1.00  0.00  0.00  0.00  0.00  0.00
  WSL2448                 1.00   0.00  0.00  0.00  1.00  0.00  0.00  0.00  0.00  0.00
  WSL2449                 1.00   0.00  0.00  0.00  1.00  0.00  0.00  0.00  0.04  0.00
  WSL2450                 1.00   0.00  0.00  0.00  1.00  0.00  0.00  0.00  0.03  0.00
  WSL2451                 1.00   0.00  0.00  0.00  1.00  0.00  0.00  0.00  0.00  0.00
  WSL2452                 1.00   0.00  0.00  0.00  1.00  0.00  0.00  0.00  0.43  0.00
  WSL2454                 1.00   0.00  0.00  0.00  1.00  0.00  0.00  0.00  0.02  0.00
  WSL2478                 1.00   0.00  0.00  0.00  1.00  0.00  0.00  0.00  0.00  0.00
  WSL2479                 1.00   0.00  0.00  0.00  1.00  0.00  0.00  0.00  0.01  0.00
  WSL2480                 1.00   0.00  0.00  0.00  1.00  0.00  0.00  0.00  0.00  0.00
  WSL2482                 1.00   0.00  0.00  0.00  1.00  0.00  0.00  0.00  0.01  0.00
  WSL2484                 1.00   0.00  0.00  0.00  1.00  0.00  0.00  0.00  0.02  0.00
  WSL2493                 1.00   0.00  0.00  0.00  1.00  0.00  0.00  0.00  0.06  0.00
  8                       1.00   0.22  0.00  0.00  0.00  0.78  0.00  0.00  0.02  0.00
  19                      1.00   1.00  0.00  0.00  0.00  0.00  0.00  0.00  0.00  0.00
  17                      1.00   0.23  0.00  0.00  0.00  0.77  0.00  0.00  0.00  0.00
  
  
  *************************
  Conduit Surcharge Summary
  *************************
  
  ----------------------------------------------------------------------------
                                                           Hours        Hours 
                         --------- Hours Full --------   Above Full   Capacity
  Conduit                Both Ends  Upstream  Dnstream   Normal Flow   Limited
  ----------------------------------------------------------------------------
  WSL2294                     1.34      1.34      1.36      0.01         0.01
  WSL2295                     1.36      1.36      1.37      0.01         0.01
  WSL2296                     1.38      1.38      1.77      0.01         0.01
  WSL2297                     1.57      1.58      1.59      0.01         0.01
  WSL2298                     1.37      1.37      1.38      0.01         0.01
  WSL2301                     1.59      1.59      1.65      0.01         0.01
  WSL2302                     1.65      1.65      1.69      0.01         0.01
  WSL2441                     1.33      1.33      1.34      0.01         0.01
  WSL2442                     1.33      1.33      1.37      0.01         0.01
  WSL2443                     1.23      1.23      1.33      0.01         0.01
  WSL2444                     1.15      1.15      1.23      0.01         0.01
  WSL2446                     1.06      1.06      1.15      0.01         0.01
  WSL2447                     1.06      1.06      1.06      0.01         0.01
  WSL2448                     1.05      1.05      1.06      0.01         0.01
  WSL2449                     1.04      1.04      1.05      0.01         0.01
  WSL2450                     1.00      1.00      1.04      0.01         0.01
  WSL2451                     0.99      0.99      1.00      0.01         0.01
  WSL2452                     0.92      0.92      0.99      0.01         0.01
  WSL2454                     0.90      0.90      0.92      0.01         0.01
  WSL2478                     0.90      0.90      0.90      0.01         0.01
  WSL2479                     0.52      0.52      0.90      0.01         0.01
  WSL2480                     0.27      0.27      0.52      0.01         0.01
  WSL2482                     0.01      0.01      0.27      0.01         0.01
  WSL2493                     1.31      1.31      1.33      0.01         0.01
  
  
  ***************
  Pumping Summary
  ***************
  
  ---------------------------------------------------------------------------------------------------------
                                                  Min       Avg       Max     Total     Power    % Time Off
                        Percent   Number of      Flow      Flow      Flow    Volume     Usage    Pump Curve
  Pump                 Utilized   Start-Ups       MLD       MLD       MLD  10^6 ltr     Kw-hr    Low   High
  ---------------------------------------------------------------------------------------------------------
  CC-Pump-1              100.00           1      0.00      4.27      6.44     0.308      4.17    0.0    0.0
  CC-Pump-2              100.00           1      0.00      4.27      6.44     0.308      4.17    0.0    0.0
  
  
  ***************************
  Link Pollutant Load Summary
  ***************************
  
  ------------------------------------------------------------------------------------------
                                 COD         NH3-N            TN            TP            SS
  Link                            kg            kg            kg            kg            kg
  ------------------------------------------------------------------------------------------
  WSL2038                      4.595         0.000         0.000         0.000         0.000
  WSL2039                      6.657         0.000         0.000         0.000         0.000
  WSL2041                      6.054         0.000         0.000         0.000         0.000
  WSL2294                     34.206         0.000         0.000         0.000         0.000
  WSL2295                     31.676         0.000         0.000         0.000         0.000
  WSL2296                     33.885         0.000         0.000         0.000         0.000
  WSL2297                     32.380         0.000         0.000         0.000         0.000
  WSL2298                     31.197         0.000         0.000         0.000         0.000
  WSL2301                     32.083         0.000         0.000         0.000         0.000
  WSL2302                     32.033         0.000         0.000         0.000         0.000
  WSL2441                     36.981         0.000         0.000         0.000         0.000
  WSL2442                     22.959         0.000         0.000         0.000         0.000
  WSL2443                     22.407         0.000         0.000         0.000         0.000
  WSL2444                     21.383         0.000         0.000         0.000         0.000
  WSL2446                     20.727         0.000         0.000         0.000         0.000
  WSL2447                     19.692         0.000         0.000         0.000         0.000
  WSL2448                     18.003         0.000         0.000         0.000         0.000
  WSL2449                     16.123         0.000         0.000         0.000         0.000
  WSL2450                     14.858         0.000         0.000         0.000         0.000
  WSL2451                     14.360         0.000         0.000         0.000         0.000
  WSL2452                     13.894         0.000         0.000         0.000         0.000
  WSL2454                     11.790         0.000         0.000         0.000         0.000
  WSL2478                     10.911         0.000         0.000         0.000         0.000
  WSL2479                      8.184         0.000         0.000         0.000         0.000
  WSL2480                     12.896         0.000         0.000         0.000         0.000
  WSL2482                     10.127         0.000         0.000         0.000         0.000
  WSL2484                      8.115         0.000         0.000         0.000         0.000
  WSL2493                     23.852         0.000         0.000         0.000         0.000
  8                            6.885         0.000         0.000         0.000         0.000
  19                           0.000         0.000         0.000         0.000         0.000
  17                          26.944         0.000         0.000         0.000         0.000
  CC-Pump-1                    0.000         0.000         0.000         0.000         0.000
  CC-Pump-2                    0.000         0.000         0.000         0.000         0.000
  

  Analysis begun on:  Wed Jan  1 20:20:06 2020
  Analysis ended on:  Wed Jan  1 20:20:07 2020
  Total elapsed time: 00:00:01