
  EPA STORM WATER MANAGEMENT MODEL - VERSION 5.1 (Build 5.3.0.dev0)
  --------------------------------------------------------------

  
  *********************************************************
  NOTE: The summary statistics displayed in this report are
  based on results found at every computational time step,  
  not just on results from each reporting time step.
  *********************************************************
  
  ****************
  Analysis Options
  ****************
  Flow Units ............... MLD
  Process Models:
    Rainfall/Runoff ........ YES
    RDII ................... NO
    Snowmelt ............... NO
    Groundwater ............ NO
    Flow Routing ........... YES
    Ponding Allowed ........ NO
    Water Quality .......... YES
  Infiltration Method ...... GREEN_AMPT
  Flow Routing Method ...... DYNWAVE
  Surcharge Method ......... EXTRAN
  Starting Date ............ 08/28/2015 08:00:00
  Ending Date .............. 08/28/2015 11:50:00
  Antecedent Dry Days ...... 4.0
  Report Time Step ......... 00:01:00
  Wet Time Step ............ 00:01:00
  Dry Time Step ............ 00:01:00
  Routing Time Step ........ 5.00 sec
  Variable Time Step ....... YES
  Maximum Trials ........... 8
  Number of Threads ........ 1
  Head Tolerance ........... 0.001500 m
  
  
  **************************        Volume         Depth
  Runoff Quantity Continuity     hectare-m            mm
  **************************     ---------       -------
  Total Precipitation ......         2.029        32.804
  Evaporation Loss .........         0.000         0.000
  Infiltration Loss ........         0.625        10.109
  Surface Runoff ...........         0.582         9.407
  Final Storage ............         0.822        13.289
  Continuity Error (%) .....        -0.004
  
  
  **************************           COD         NH3-N            TN            TP            SS
  Runoff Quality Continuity             kg            kg            kg            kg            kg
  **************************    ----------    ----------    ----------    ----------    ----------
  Initial Buildup ..........      2504.640         0.000         0.000         0.000         0.000
  Surface Buildup ..........        19.475         0.000         0.000         0.000         0.000
  Wet Deposition ...........         0.000         0.000         0.000         0.000         0.000
  Sweeping Removal .........         0.000         0.000         0.000         0.000         0.000
  Infiltration Loss ........       170.219         0.000         0.000         0.000         0.000
  BMP Removal ..............         0.000         0.000         0.000         0.000         0.000
  Surface Runoff ...........      1199.030         0.000         0.000         0.000         0.000
  Remaining Buildup ........      1154.287         0.000         0.000         0.000         0.000
  Continuity Error (%) .....         0.023         0.000         0.000         0.000         0.000
  
  
  **************************        Volume        Volume
  Flow Routing Continuity        hectare-m      10^6 ltr
  **************************     ---------     ---------
  Dry Weather Inflow .......         0.000         0.000
  Wet Weather Inflow .......         0.580         5.804
  Groundwater Inflow .......         0.000         0.000
  RDII Inflow ..............         0.000         0.000
  External Inflow ..........         0.082         0.822
  External Outflow .........         0.582         5.818
  Flooding Loss ............         0.037         0.366
  Evaporation Loss .........         0.000         0.000
  Exfiltration Loss ........         0.000         0.000
  Initial Stored Volume ....         0.000         0.000
  Final Stored Volume ......         0.056         0.564
  Continuity Error (%) .....        -1.846
  
  
  **************************           COD         NH3-N            TN            TP            SS
  Quality Routing Continuity            kg            kg            kg            kg            kg
  **************************    ----------    ----------    ----------    ----------    ----------
  Dry Weather Inflow .......         0.000         0.000         0.000         0.000         0.000
  Wet Weather Inflow .......      1197.233         0.000         0.000         0.000         0.000
  Groundwater Inflow .......         0.000         0.000         0.000         0.000         0.000
  RDII Inflow ..............         0.000         0.000         0.000         0.000         0.000
  External Inflow ..........       137.264         0.000         0.000         0.000         0.000
  External Outflow .........      1077.620         0.000         0.000         0.000         0.000
  Flooding Loss ............       135.093         0.000         0.000         0.000         0.000
  Exfiltration Loss ........         0.000         0.000         0.000         0.000         0.000
  Mass Reacted .............         0.000         0.000         0.000         0.000         0.000
  Initial Stored Mass ......         0.000         0.000         0.000         0.000         0.000
  Final Stored Mass ........        71.953         0.000         0.000         0.000         0.000
  Continuity Error (%) .....         3.734         0.000         0.000         0.000         0.000
  
  
  *************************
  Highest Continuity Errors
  *************************
  Node WS02006230 (5.55%)
  Node WS02006229 (3.39%)
  Node WS02006231 (3.10%)
  Node WS02006242 (2.56%)
  Node WS02006243 (2.32%)
  
  
  ***************************
  Time-Step Critical Elements
  ***************************
  Link 8 (88.10%)
  Link WSL2448 (6.94%)
  Link 17 (3.34%)
  
  
  ********************************
  Highest Flow Instability Indexes
  ********************************
  Link WSL2302 (2)
  Link WSL2301 (2)
  Link WSL2297 (1)
  Link WSL2296 (1)
  Link WSL2298 (1)
  
  
  *************************
  Routing Time Step Summary
  *************************
  Minimum Time Step           :     0.13 sec
  Average Time Step           :     0.82 sec
  Maximum Time Step           :     5.00 sec
  Percent in Steady State     :    -0.00
  Average Iterations per Step :     2.09
  Percent Not Converging      :     0.82
  
  
  ***************************
  Subcatchment Runoff Summary
  ***************************
  
  ------------------------------------------------------------------------------------------------------------------------------
                            Total      Total      Total      Total     Imperv       Perv      Total       Total     Peak  Runoff
                           Precip      Runon       Evap      Infil     Runoff     Runoff     Runoff      Runoff   Runoff   Coeff
  Subcatchment                 mm         mm         mm         mm         mm         mm         mm    10^6 ltr      MLD
  ------------------------------------------------------------------------------------------------------------------------------
  1                         32.80      51.37       0.00      12.17      20.11      28.04      48.16        0.58    11.21   0.572
  2                         32.80       0.00       0.00       9.51       7.95       5.51      13.47        0.45     9.41   0.410
  3                         32.80       0.00       0.00       9.60       7.88       4.73      12.61        0.64    13.30   0.384
  35                        32.80       0.00       0.00       9.48       7.97       5.73      13.69        0.41     8.62   0.417
  36                        32.80      28.10       0.00      11.83      14.21      11.40      25.61        1.51    28.77   0.420
  40                        32.80       7.27       0.00      10.19       9.59       7.13      16.71        0.65    12.99   0.417
  41                        32.80       0.00       0.00       9.35       8.03       6.67      14.69        0.29     5.96   0.448
  42                        32.80       0.00       0.00       9.40       8.01       6.32      14.32        0.33     6.81   0.437
  43                        32.80       0.00       0.00       8.71       8.14      10.64      18.78        0.07     1.48   0.573
  44                        32.80     423.86       0.00      19.00     112.07     268.61     380.68        1.41    28.38   0.834
  45                        32.80       0.00       0.00       9.14       8.08       8.12      16.20        0.17     3.53   0.494
  46                        32.80      23.74       0.00      11.15      13.52      14.37      27.90        0.60    11.53   0.493
  47                        32.80       0.00       0.00       9.16       8.08       7.94      16.02        0.18     3.76   0.488
  48                        32.80      11.22       0.00      10.18      10.66      11.06      21.72        0.34     6.80   0.493
  55                        32.80      16.85       0.00      10.27      12.09      15.71      27.80        0.23     4.60   0.560
  56                        32.80      25.94       0.00      11.28      14.04      15.17      29.22        0.63    12.11   0.497
  57                        32.80       0.00       0.00       9.60       7.89       4.76      12.65        0.63    13.08   0.386
  59                        32.80       0.00       0.00       9.06       8.10       8.60      16.70        0.14     2.99   0.509
  60                        32.80      36.41       0.00      11.08      16.88      27.47      44.35        0.23     4.66   0.641
  61                        32.80       0.00       0.00       9.83       7.54       2.83      10.38        1.87    38.28   0.316
  64                        32.80       0.00       0.00       9.19       8.07       7.76      15.83        0.19     4.01   0.483
  
  
  ****************************
  Subcatchment Washoff Summary
  ****************************
  
  ------------------------------------------------------------------------------------------
                                 COD         NH3-N            TN            TP            SS
  Subcatchment                    kg            kg            kg            kg            kg
  ------------------------------------------------------------------------------------------
  1                          101.247         0.000         0.000         0.000         0.000
  2                            0.000         0.000         0.000         0.000         0.000
  3                            0.000         0.000         0.000         0.000         0.000
  35                         102.139         0.000         0.000         0.000         0.000
  36                         457.757         0.000         0.000         0.000         0.000
  40                         180.979         0.000         0.000         0.000         0.000
  41                          69.640         0.000         0.000         0.000         0.000
  42                          80.066         0.000         0.000         0.000         0.000
  43                          15.251         0.000         0.000         0.000         0.000
  44                         435.570         0.000         0.000         0.000         0.000
  45                          39.904         0.000         0.000         0.000         0.000
  46                         165.345         0.000         0.000         0.000         0.000
  47                          42.655         0.000         0.000         0.000         0.000
  48                          91.044         0.000         0.000         0.000         0.000
  55                          57.896         0.000         0.000         0.000         0.000
  56                         168.389         0.000         0.000         0.000         0.000
  57                         155.923         0.000         0.000         0.000         0.000
  59                          33.233         0.000         0.000         0.000         0.000
  60                          56.047         0.000         0.000         0.000         0.000
  61                         448.395         0.000         0.000         0.000         0.000
  64                          45.712         0.000         0.000         0.000         0.000
  ------------------------------------------------------------------------------------------
  System                    2747.191         0.000         0.000         0.000         0.000
  
  
  ******************
  Node Depth Summary
  ******************
  
  ---------------------------------------------------------------------------------
                                 Average  Maximum  Maximum  Time of Max    Reported
                                   Depth    Depth      HGL   Occurrence   Max Depth
  Node                 Type       Meters   Meters   Meters  days hr:min      Meters
  ---------------------------------------------------------------------------------
  WS01000070           JUNCTION     0.00     0.00     0.00     0  00:00        0.00
  WS01000323           JUNCTION     0.00     0.00     0.00     0  00:00        0.00
  WS01000533           JUNCTION     0.00     0.00     6.86     0  00:00        0.00
  WS01005172           JUNCTION     0.00     0.00     0.00     0  00:00        0.00
  WS01005181           JUNCTION     0.00     0.00     0.00     0  00:00        0.00
  WS01009841           JUNCTION     0.00     0.00     0.00     0  00:00        0.00
  WS02000078           JUNCTION     0.00     0.00     0.00     0  00:00        0.00
  WS02000112           JUNCTION     0.00     0.00     0.00     0  00:00        0.00
  WS02000136           JUNCTION     0.00     0.00     0.00     0  00:00        0.00
  WS02004053           JUNCTION     0.00     0.00     0.00     0  00:00        0.00
  WS02004401           JUNCTION     2.23     2.41     8.41     0  03:01        2.41
  WS02005192           JUNCTION     0.58     0.92     8.79     0  03:00        0.92
  WS02005193           JUNCTION     0.62     0.96     8.78     0  03:00        0.96
  WS02005196           JUNCTION     0.59     0.94     8.79     0  03:00        0.94
  WS02006109           JUNCTION     1.68     1.92     8.54     0  03:00        1.91
  WS02006110           JUNCTION     1.69     1.92     8.52     0  03:00        1.91
  WS02006111           JUNCTION     1.68     1.89     8.47     0  03:00        1.88
  WS02006112           JUNCTION     2.13     2.32     8.44     0  03:00        2.32
  WS02006113           JUNCTION     1.69     1.91     8.50     0  03:00        1.91
  WS02006115           JUNCTION     2.14     2.33     8.43     0  03:00        2.33
  WS02006116           JUNCTION     2.20     2.38     8.42     0  03:00        2.38
  WS02006183           JUNCTION     0.00     0.00     0.00     0  00:00        0.00
  WS02006228           JUNCTION     1.65     1.90     8.55     0  03:00        1.90
  WS02006229           JUNCTION     1.61     1.86     8.55     0  03:00        1.86
  WS02006230           JUNCTION     1.56     1.80     8.55     0  03:00        1.80
  WS02006231           JUNCTION     1.41     1.65     8.55     0  03:00        1.65
  WS02006232           JUNCTION     1.29     1.52     8.55     0  03:00        1.52
  WS02006234           JUNCTION     1.16     1.39     8.55     0  03:00        1.38
  WS02006235           JUNCTION     1.15     1.38     8.55     0  03:00        1.37
  WS02006238           JUNCTION     1.14     1.37     8.55     0  03:00        1.36
  WS02006239           JUNCTION     1.12     1.34     8.55     0  03:00        1.33
  WS02006242           JUNCTION     1.03     1.24     8.54     0  03:00        1.23
  WS02006240           JUNCTION     1.04     1.25     8.54     0  03:00        1.25
  WS02006243           JUNCTION     0.91     1.11     8.53     0  03:00        1.11
  WS02006245           JUNCTION     0.85     1.04     8.53     0  03:00        1.04
  WS02006247           JUNCTION     0.83     1.02     8.53     0  03:00        1.01
  WS02006248           JUNCTION     0.75     0.92     8.51     0  03:00        0.92
  WS02006249           JUNCTION     0.76     0.97     8.57     0  03:00        0.97
  WS02006251           JUNCTION     0.74     1.04     8.71     0  03:00        1.04
  WS02006253           JUNCTION     0.63     0.97     8.77     0  03:00        0.97
  WS02618401           JUNCTION     0.00     0.00     0.00     0  00:00        0.00
  WSA1649              JUNCTION     0.00     0.00     0.00     0  00:00        0.00
  outfall-5            OUTFALL      0.19     0.32     7.99     0  03:00        0.32
  outfall-14           OUTFALL      0.14     0.21     7.87     0  03:01        0.21
  outfall-16           OUTFALL      0.00     0.00     8.39     0  00:00        0.00
  CC-storage           STORAGE      2.53     5.63     8.81     0  02:42        5.63
  
  
  *******************
  Node Inflow Summary
  *******************
  
  -------------------------------------------------------------------------------------------------
                                  Maximum  Maximum                  Lateral       Total        Flow
                                  Lateral    Total  Time of Max      Inflow      Inflow     Balance
                                   Inflow   Inflow   Occurrence      Volume      Volume       Error
  Node                 Type           MLD      MLD  days hr:min    10^6 ltr    10^6 ltr     Percent
  -------------------------------------------------------------------------------------------------
  WS01000070           JUNCTION      0.00     0.00     0  00:00           0           0       0.000 ltr
  WS01000323           JUNCTION      0.00     0.00     0  00:00           0           0       0.000 ltr
  WS01000533           JUNCTION      0.00     0.00     0  00:00           0           0       0.000 ltr
  WS01005172           JUNCTION      0.00     0.00     0  00:00           0           0       0.000 ltr
  WS01005181           JUNCTION      0.00     0.00     0  00:00           0           0       0.000 ltr
  WS01009841           JUNCTION      0.00     0.00     0  00:00           0           0       0.000 ltr
  WS02000078           JUNCTION      0.00     0.00     0  00:00           0           0       0.000 ltr
  WS02000112           JUNCTION      0.00     0.00     0  00:00           0           0       0.000 ltr
  WS02000136           JUNCTION      0.00     0.00     0  00:00           0           0       0.000 ltr
  WS02004053           JUNCTION      0.00     0.00     0  00:00           0           0       0.000 ltr
  WS02004401           JUNCTION      0.05    40.66     0  03:01      0.0086        2.27       1.281
  WS02005192           JUNCTION     13.18    13.18     0  02:46       0.648       0.649       0.430
  WS02005193           JUNCTION      0.09    13.40     0  02:45       0.014       0.685       1.127
  WS02005196           JUNCTION      0.12    13.30     0  02:45      0.0183       0.669       1.071
  WS02006109           JUNCTION      0.08    27.97     0  03:01      0.0129        1.69       1.432
  WS02006110           JUNCTION      0.08    28.04     0  03:01      0.0126        1.69       1.466
  WS02006111           JUNCTION      0.24    40.18     0  03:01      0.0352        2.32       0.887
  WS02006112           JUNCTION      0.18    40.33     0  03:01      0.0263        2.32       1.409
  WS02006113           JUNCTION     13.45    39.98     0  03:01       0.667        2.32       1.021
  WS02006115           JUNCTION      0.08    40.41     0  03:01      0.0129        2.31       1.638
  WS02006116           JUNCTION      0.24    40.61     0  03:01      0.0347         2.3       1.485
  WS02006183           JUNCTION      0.00     0.00     0  00:00           0           0       0.000 ltr
  WS02006228           JUNCTION     28.54    28.54     0  03:01        1.43        1.78       1.003
  WS02006229           JUNCTION      0.13    14.32     0  00:30      0.0193       0.461       3.506
  WS02006230           JUNCTION      0.07    14.11     0  00:30      0.0111        0.47       5.881
  WS02006231           JUNCTION      0.13    13.67     0  00:29      0.0197       0.475       3.202
  WS02006232           JUNCTION      9.49    13.57     0  02:50       0.466       0.799       1.939
  WS02006234           JUNCTION      0.14    13.69     0  02:50      0.0208       0.678       2.049
  WS02006235           JUNCTION      0.14    14.11     0  01:21      0.0215       0.683       1.124
  WS02006238           JUNCTION      0.15    15.46     0  01:21      0.0226        0.69       1.430
  WS02006239           JUNCTION      0.11    17.44     0  01:22      0.0167       0.698       2.186
  WS02006242           JUNCTION      0.08    18.36     0  01:21      0.0124       0.717       2.623
  WS02006240           JUNCTION      0.06    18.03     0  01:22     0.00952       0.704       2.362
  WS02006243           JUNCTION      0.17    18.57     0  01:21      0.0259       0.732       2.374
  WS02006245           JUNCTION      0.07    18.48     0  01:21      0.0109        0.73       1.831
  WS02006247           JUNCTION     11.35    24.80     0  02:50       0.605         1.3       0.878
  WS02006248           JUNCTION      0.12    74.01     0  03:00      0.0185        3.83       0.285
  WS02006249           JUNCTION      0.19    51.71     0  03:00      0.0275        2.79       0.528
  WS02006251           JUNCTION      4.66    51.54     0  03:00        0.24        2.77       0.534
  WS02006253           JUNCTION      0.11    46.91     0  03:00      0.0166        2.53       0.300
  WS02618401           JUNCTION      0.00     0.00     0  00:00           0           0       0.000 ltr
  WSA1649              JUNCTION      0.00     0.00     0  00:00           0           0       0.000 ltr
  outfall-5            OUTFALL       0.00    74.01     0  03:00           0        3.59       0.000
  outfall-14           OUTFALL       0.00    40.66     0  03:01           0        2.23       0.000
  outfall-16           OUTFALL       0.00     0.00     0  00:00           0           0       0.000 ltr
  CC-storage           STORAGE      39.90    39.90     0  02:48        2.14        2.14      -6.859
  
  
  **********************
  Node Surcharge Summary
  **********************
  
  Surcharging occurs when water rises above the top of the highest conduit.
  ---------------------------------------------------------------------
                                               Max. Height   Min. Depth
                                   Hours       Above Crown    Below Rim
  Node                 Type      Surcharged         Meters       Meters
  ---------------------------------------------------------------------
  WS01000070           JUNCTION        3.83          0.000        0.000
  WS01000323           JUNCTION        3.83          0.000        0.000
  WS01000533           JUNCTION        3.83          0.000        2.147
  WS01005172           JUNCTION        3.83          0.000        0.000
  WS01005181           JUNCTION        3.83          0.000        0.000
  WS01009841           JUNCTION        3.83          0.000        0.000
  WS02000078           JUNCTION        3.83          0.000        0.000
  WS02000112           JUNCTION        3.83          0.000        0.000
  WS02000136           JUNCTION        3.83          0.000        0.000
  WS02004053           JUNCTION        3.83          0.000        0.000
  WS02005192           JUNCTION        1.10          0.323        2.496
  WS02005193           JUNCTION        1.37          0.355        2.262
  WS02005196           JUNCTION        1.22          0.336        2.370
  WS02006109           JUNCTION        2.50          1.118        0.720
  WS02006110           JUNCTION        2.50          1.121        0.724
  WS02006111           JUNCTION        2.50          1.089        0.788
  WS02006112           JUNCTION        2.81          1.324        0.359
  WS02006113           JUNCTION        2.50          1.114        0.819
  WS02006115           JUNCTION        2.85          1.328        0.971
  WS02006116           JUNCTION        2.97          1.378        0.972
  WS02006183           JUNCTION        3.83          0.000        0.000
  WS02006228           JUNCTION        2.50          1.100        1.131
  WS02006229           JUNCTION        2.49          1.060        1.394
  WS02006231           JUNCTION        2.47          0.949        0.594
  WS02006232           JUNCTION        2.45          0.822        0.667
  WS02006234           JUNCTION        2.40          0.690        0.567
  WS02006235           JUNCTION        2.40          0.679        0.615
  WS02006238           JUNCTION        2.39          0.669        0.765
  WS02006239           JUNCTION        2.38          0.636        0.693
  WS02006242           JUNCTION        2.35          0.539        0.310
  WS02006240           JUNCTION        2.36          0.553        0.850
  WS02006243           JUNCTION        2.29          0.414        0.366
  WS02006245           JUNCTION        2.26          0.339        0.516
  WS02006247           JUNCTION        2.26          0.316        0.444
  WS02006249           JUNCTION        2.05          0.271        0.117
  WS02006251           JUNCTION        1.51          0.336        1.174
  WS02006253           JUNCTION        0.97          0.267        2.187
  WS02618401           JUNCTION        3.83          0.000        0.000
  WSA1649              JUNCTION        3.83          0.000        0.000
  
  
  *********************
  Node Flooding Summary
  *********************
  
  Flooding refers to all water that overflows a node, whether it ponds or not.
  --------------------------------------------------------------------------
                                                             Total   Maximum
                                 Maximum   Time of Max       Flood    Ponded
                        Hours       Rate    Occurrence      Volume     Depth
  Node                 Flooded       MLD   days hr:min    10^6 ltr    Meters
  --------------------------------------------------------------------------
  CC-storage              0.34     39.90      0  02:48       0.366     0.000
  
  
  **********************
  Storage Volume Summary
  **********************
  
  --------------------------------------------------------------------------------------------------
                         Average     Avg  Evap Exfil       Maximum     Max    Time of Max    Maximum
                          Volume    Pcnt  Pcnt  Pcnt        Volume    Pcnt     Occurrence    Outflow
  Storage Unit           1000 m3    Full  Loss  Loss       1000 m3    Full    days hr:min        MLD
  --------------------------------------------------------------------------------------------------
  CC-storage               0.072      45     0     0         0.159     100       0  02:42      34.56
  
  
  ***********************
  Outfall Loading Summary
  ***********************
  
  ---------------------------------------------------------------------------------------------------------------------------------
                         Flow       Avg       Max       Total         Total         Total         Total         Total         Total
                         Freq      Flow      Flow      Volume           COD         NH3-N            TN            TP            SS
  Outfall Node           Pcnt       MLD       MLD    10^6 ltr            kg            kg            kg            kg            kg
  ---------------------------------------------------------------------------------------------------------------------------------
  outfall-5             91.49     39.52     74.01       3.591       642.692         0.000         0.000         0.000         0.000
  outfall-14            91.34     24.47     40.66       2.227       434.947         0.000         0.000         0.000         0.000
  outfall-16             0.00      0.00      0.00       0.000         0.000         0.000         0.000         0.000         0.000
  ---------------------------------------------------------------------------------------------------------------------------------
  System                60.95     63.99    114.22       5.818      1077.640         0.000         0.000         0.000         0.000
  
  
  ********************
  Link Flow Summary
  ********************
  
  -----------------------------------------------------------------------------
                                 Maximum  Time of Max   Maximum    Max/    Max/
                                  |Flow|   Occurrence   |Veloc|    Full    Full
  Link                 Type          MLD  days hr:min     m/sec    Flow   Depth
  -----------------------------------------------------------------------------
  WSL2038              CONDUIT     13.19     0  02:45      0.54    0.66    1.00
  WSL2039              CONDUIT     13.40     0  02:45      0.79    0.69    1.00
  WSL2041              CONDUIT     13.32     0  02:45      0.61    0.65    1.00
  WSL2294              CONDUIT     27.97     0  03:01      0.89    0.94    1.00
  WSL2295              CONDUIT     28.04     0  03:01      0.94    1.26    1.00
  WSL2296              CONDUIT     40.18     0  03:01      0.93    0.23    1.00
  WSL2297              CONDUIT     40.33     0  03:01      0.59    0.77    1.00
  WSL2298              CONDUIT     39.99     0  03:01      1.55    1.84    1.00
  WSL2301              CONDUIT     40.42     0  03:01      0.60    0.37    1.00
  WSL2302              CONDUIT     40.61     0  03:01      0.60    0.50    1.00
  WSL2441              CONDUIT     27.89     0  03:01      0.96    0.71    1.00
  WSL2442              CONDUIT     14.19     0  00:30      1.15    0.36    1.00
  WSL2443              CONDUIT     14.03     0  00:30      1.28    0.22    1.00
  WSL2444              CONDUIT     13.54     0  00:29      1.44    0.21    1.00
  WSL2446              CONDUIT     13.57     0  02:50      1.43    0.23    1.00
  WSL2447              CONDUIT     13.69     0  02:50      1.21    0.70    1.00
  WSL2448              CONDUIT     13.97     0  01:21      1.02    0.39    1.00
  WSL2449              CONDUIT     15.30     0  01:21      0.97    0.53    1.00
  WSL2450              CONDUIT     17.32     0  01:22      1.05    0.36    1.00
  WSL2451              CONDUIT     17.96     0  01:22      1.08    1.17    1.00
  WSL2452              CONDUIT     18.28     0  01:21      1.14    0.35    1.00
  WSL2454              CONDUIT     18.40     0  01:21      1.30    0.43    1.00
  WSL2478              CONDUIT     18.41     0  01:21      1.20    0.65    1.00
  WSL2479              CONDUIT     24.80     0  02:50      1.19    0.47    1.00
  WSL2480              CONDUIT     51.71     0  03:00      1.56    2.39    1.00
  WSL2482              CONDUIT     51.55     0  03:00      1.55    1.34    1.00
  WSL2484              CONDUIT     46.93     0  03:00      1.41    0.66    1.00
  WSL2493              CONDUIT     13.78     0  00:30      1.00    0.23    1.00
  8                    CONDUIT     74.01     0  03:00      7.96    0.98    0.80
  19                   CONDUIT      0.00     0  00:00      0.00    0.00    0.00
  17                   CONDUIT     40.66     0  03:01      7.19    0.53    0.52
  CC-Pump-1            PUMP        17.28     0  02:20              1.00
  CC-Pump-2            PUMP        17.28     0  02:10              1.00
  
  
  ***************************
  Flow Classification Summary
  ***************************
  
  -------------------------------------------------------------------------------------
                      Adjusted    ---------- Fraction of Time in Flow Class ---------- 
                       /Actual         Up    Down  Sub   Sup   Up    Down  Norm  Inlet 
  Conduit               Length    Dry  Dry   Dry   Crit  Crit  Crit  Crit  Ltd   Ctrl  
  -------------------------------------------------------------------------------------
  WSL2038                 1.00   0.00  0.00  0.00  1.00  0.00  0.00  0.00  0.01  0.00
  WSL2039                 1.00   0.00  0.00  0.00  1.00  0.00  0.00  0.00  0.01  0.00
  WSL2041                 1.00   0.00  0.00  0.00  1.00  0.00  0.00  0.00  0.21  0.00
  WSL2294                 1.00   0.00  0.00  0.00  1.00  0.00  0.00  0.00  0.00  0.00
  WSL2295                 1.00   0.00  0.00  0.00  1.00  0.00  0.00  0.00  0.00  0.00
  WSL2296                 1.00   0.00  0.00  0.00  1.00  0.00  0.00  0.00  0.15  0.00
  WSL2297                 1.00   0.00  0.00  0.00  1.00  0.00  0.00  0.00  0.00  0.00
  WSL2298                 1.00   0.00  0.00  0.00  0.98  0.02  0.00  0.00  0.00  0.00
  WSL2301                 1.00   0.00  0.00  0.00  1.00  0.00  0.00  0.00  0.04  0.00
  WSL2302                 1.00   0.00  0.00  0.00  1.00  0.00  0.00  0.00  0.01  0.00
  WSL2441                 1.00   0.00  0.00  0.00  1.00  0.00  0.00  0.00  0.00  0.00
  WSL2442                 1.00   0.00  0.00  0.00  1.00  0.00  0.00  0.00  0.04  0.00
  WSL2443                 1.00   0.00  0.00  0.00  1.00  0.00  0.00  0.00  0.17  0.00
  WSL2444                 1.00   0.00  0.00  0.00  0.96  0.04  0.00  0.00  0.15  0.00
  WSL2446                 1.00   0.00  0.00  0.00  0.95  0.05  0.00  0.00  0.18  0.00
  WSL2447                 1.00   0.00  0.00  0.00  1.00  0.00  0.00  0.00  0.00  0.00
  WSL2448                 1.00   0.00  0.00  0.00  1.00  0.00  0.00  0.00  0.01  0.00
  WSL2449                 1.00   0.00  0.00  0.00  1.00  0.00  0.00  0.00  0.03  0.00
  WSL2450                 1.00   0.00  0.00  0.00  1.00  0.00  0.00  0.00  0.25  0.00
  WSL2451                 1.00   0.00  0.00  0.00  1.00  0.00  0.00  0.00  0.00  0.00
  WSL2452                 1.00   0.00  0.00  0.00  1.00  0.00  0.00  0.00  0.29  0.00
  WSL2454                 1.00   0.00  0.00  0.00  1.00  0.00  0.00  0.00  0.05  0.00
  WSL2478                 1.00   0.00  0.00  0.00  1.00  0.00  0.00  0.00  0.00  0.00
  WSL2479                 1.00   0.00  0.00  0.00  1.00  0.00  0.00  0.00  0.24  0.00
  WSL2480                 1.00   0.00  0.00  0.00  1.00  0.00  0.00  0.00  0.00  0.00
  WSL2482                 1.00   0.00  0.00  0.00  1.00  0.00  0.00  0.00  0.25  0.00
  WSL2484                 1.00   0.00  0.00  0.00  1.00  0.00  0.00  0.00  0.23  0.00
  WSL2493                 1.00   0.00  0.00  0.00  1.00  0.00  0.00  0.00  0.05  0.00
  8                       1.00   0.09  0.00  0.00  0.00  0.91  0.00  0.00  0.09  0.00
  19                      1.00   1.00  0.00  0.00  0.00  0.00  0.00  0.00  0.00  0.00
  17                      1.00   0.09  0.00  0.00  0.00  0.91  0.00  0.00  0.00  0.00
  
  
  *************************
  Conduit Surcharge Summary
  *************************
  
  ----------------------------------------------------------------------------
                                                           Hours        Hours 
                         --------- Hours Full --------   Above Full   Capacity
  Conduit                Both Ends  Upstream  Dnstream   Normal Flow   Limited
  ----------------------------------------------------------------------------
  WSL2038                     1.10      1.10      1.22      0.01         0.01
  WSL2039                     1.37      1.37      1.43      0.01         0.01
  WSL2041                     1.22      1.22      1.37      0.01         0.01
  WSL2294                     2.50      2.50      2.50      0.01         0.01
  WSL2295                     2.50      2.50      2.50      0.59         0.59
  WSL2296                     2.50      2.50      3.12      0.01         0.01
  WSL2297                     2.81      2.81      2.85      0.01         0.01
  WSL2298                     2.50      2.50      2.50      1.30         1.32
  WSL2301                     2.85      2.85      2.96      0.01         0.01
  WSL2302                     2.96      2.96      3.04      0.01         0.01
  WSL2441                     2.50      2.50      2.50      0.01         0.01
  WSL2442                     2.49      2.49      2.50      0.01         0.01
  WSL2443                     2.47      2.47      2.49      0.01         0.01
  WSL2444                     2.45      2.45      2.47      0.01         0.01
  WSL2446                     2.40      2.40      2.45      0.01         0.01
  WSL2447                     2.39      2.40      2.40      0.01         0.01
  WSL2448                     2.39      2.39      2.40      0.01         0.01
  WSL2449                     2.38      2.38      2.39      0.01         0.01
  WSL2450                     2.36      2.36      2.38      0.01         0.01
  WSL2451                     2.35      2.35      2.36      0.04         0.01
  WSL2452                     2.29      2.29      2.35      0.01         0.01
  WSL2454                     2.26      2.26      2.29      0.01         0.01
  WSL2478                     2.26      2.26      2.26      0.01         0.01
  WSL2479                     2.11      2.11      2.26      0.01         0.01
  WSL2480                     2.05      2.05      2.11      1.25         1.26
  WSL2482                     1.51      1.51      2.05      0.79         0.79
  WSL2484                     0.97      0.97      1.51      0.01         0.01
  WSL2493                     2.49      2.49      2.50      0.01         0.01
  
  
  ***************
  Pumping Summary
  ***************
  
  ---------------------------------------------------------------------------------------------------------
                                                  Min       Avg       Max     Total     Power    % Time Off
                        Percent   Number of      Flow      Flow      Flow    Volume     Usage    Pump Curve
  Pump                 Utilized   Start-Ups       MLD       MLD       MLD  10^6 ltr     Kw-hr    Low   High
  ---------------------------------------------------------------------------------------------------------
  CC-Pump-1               43.49           3      0.00     12.51     17.28     0.750      6.40    0.0    0.0
  CC-Pump-2               65.23           5      0.00     12.31     17.28     1.084      8.85    0.0    0.0
  
  
  ***************************
  Link Pollutant Load Summary
  ***************************
  
  ------------------------------------------------------------------------------------------
                                 COD         NH3-N            TN            TP            SS
  Link                            kg            kg            kg            kg            kg
  ------------------------------------------------------------------------------------------
  WSL2038                    158.990         0.000         0.000         0.000         0.000
  WSL2039                    165.952         0.000         0.000         0.000         0.000
  WSL2041                    162.640         0.000         0.000         0.000         0.000
  WSL2294                    445.135         0.000         0.000         0.000         0.000
  WSL2295                    442.056         0.000         0.000         0.000         0.000
  WSL2296                    446.712         0.000         0.000         0.000         0.000
  WSL2297                    445.499         0.000         0.000         0.000         0.000
  WSL2298                    442.499         0.000         0.000         0.000         0.000
  WSL2301                    442.737         0.000         0.000         0.000         0.000
  WSL2302                    441.408         0.000         0.000         0.000         0.000
  WSL2441                    448.078         0.000         0.000         0.000         0.000
  WSL2442                     58.798         0.000         0.000         0.000         0.000
  WSL2443                     51.191         0.000         0.000         0.000         0.000
  WSL2444                     44.001         0.000         0.000         0.000         0.000
  WSL2446                     43.280         0.000         0.000         0.000         0.000
  WSL2447                     47.079         0.000         0.000         0.000         0.000
  WSL2448                     48.606         0.000         0.000         0.000         0.000
  WSL2449                     50.893         0.000         0.000         0.000         0.000
  WSL2450                     53.766         0.000         0.000         0.000         0.000
  WSL2451                     56.632         0.000         0.000         0.000         0.000
  WSL2452                     59.564         0.000         0.000         0.000         0.000
  WSL2454                     60.722         0.000         0.000         0.000         0.000
  WSL2478                     61.129         0.000         0.000         0.000         0.000
  WSL2479                    157.149         0.000         0.000         0.000         0.000
  WSL2480                    534.165         0.000         0.000         0.000         0.000
  WSL2482                    530.238         0.000         0.000         0.000         0.000
  WSL2484                    471.666         0.000         0.000         0.000         0.000
  WSL2493                     67.642         0.000         0.000         0.000         0.000
  8                          642.692         0.000         0.000         0.000         0.000
  19                           0.000         0.000         0.000         0.000         0.000
  17                         434.947         0.000         0.000         0.000         0.000
  CC-Pump-1                  130.111         0.000         0.000         0.000         0.000
  CC-Pump-2                  174.150         0.000         0.000         0.000         0.000
  

  Analysis begun on:  Wed Jan  1 20:19:45 2020
  Analysis ended on:  Wed Jan  1 20:19:46 2020
  Total elapsed time: 00:00:01