
  EPA STORM WATER MANAGEMENT MODEL - VERSION 5.1 (Build 5.2.0.dev5)
  --------------------------------------------------------------

  
  *********************************************************
  NOTE: The summary statistics displayed in this report are
  based on results found at every computational time step,  
  not just on results from each reporting time step.
  *********************************************************
  
  ****************
  Analysis Options
  ****************
  Flow Units ............... MLD
  Process Models:
    Rainfall/Runoff ........ YES
    RDII ................... NO
    Snowmelt ............... NO
    Groundwater ............ NO
    Flow Routing ........... YES
    Ponding Allowed ........ NO
    Water Quality .......... YES
  Infiltration Method ...... GREEN_AMPT
  Flow Routing Method ...... DYNWAVE
  Surcharge Method ......... EXTRAN
  Starting Date ............ 08/28/2015 08:00:00
  Ending Date .............. 08/28/2015 11:50:00
  Antecedent Dry Days ...... 4.0
  Report Time Step ......... 00:01:00
  Wet Time Step ............ 00:01:00
  Dry Time Step ............ 00:01:00
  Routing Time Step ........ 5.00 sec
  Variable Time Step ....... YES
  Maximum Trials ........... 8
  Number of Threads ........ 1
  Head Tolerance ........... 0.001500 m
  
  
  **************************        Volume         Depth
  Runoff Quantity Continuity     hectare-m            mm
  **************************     ---------       -------
  Total Precipitation ......         1.608        25.990
  Evaporation Loss .........         0.000         0.000
  Infiltration Loss ........         0.563         9.094
  Surface Runoff ...........         0.413         6.675
  Final Storage ............         0.632        10.221
  Continuity Error (%) .....        -0.004
  
  
  **************************           COD         NH3-N            TN            TP            SS
  Runoff Quality Continuity             kg            kg            kg            kg            kg
  **************************    ----------    ----------    ----------    ----------    ----------
  Initial Buildup ..........      2504.640         0.000         0.000         0.000         0.000
  Surface Buildup ..........        19.567         0.000         0.000         0.000         0.000
  Wet Deposition ...........         0.000         0.000         0.000         0.000         0.000
  Sweeping Removal .........         0.000         0.000         0.000         0.000         0.000
  Infiltration Loss ........       142.985         0.000         0.000         0.000         0.000
  BMP Removal ..............         0.000         0.000         0.000         0.000         0.000
  Surface Runoff ...........       849.827         0.000         0.000         0.000         0.000
  Remaining Buildup ........      1529.358         0.000         0.000         0.000         0.000
  Continuity Error (%) .....         0.081         0.000         0.000         0.000         0.000
  
  
  **************************        Volume        Volume
  Flow Routing Continuity        hectare-m      10^6 ltr
  **************************     ---------     ---------
  Dry Weather Inflow .......         0.000         0.000
  Wet Weather Inflow .......         0.412         4.119
  Groundwater Inflow .......         0.000         0.000
  RDII Inflow ..............         0.000         0.000
  External Inflow ..........         0.082         0.822
  External Outflow .........         0.279         2.793
  Flooding Loss ............         0.149         1.487
  Evaporation Loss .........         0.000         0.000
  Exfiltration Loss ........         0.000         0.000
  Initial Stored Volume ....         0.000         0.000
  Final Stored Volume ......         0.062         0.623
  Continuity Error (%) .....         0.772
  
  
  **************************           COD         NH3-N            TN            TP            SS
  Quality Routing Continuity            kg            kg            kg            kg            kg
  **************************    ----------    ----------    ----------    ----------    ----------
  Dry Weather Inflow .......         0.000         0.000         0.000         0.000         0.000
  Wet Weather Inflow .......       848.219         0.000         0.000         0.000         0.000
  Groundwater Inflow .......         0.000         0.000         0.000         0.000         0.000
  RDII Inflow ..............         0.000         0.000         0.000         0.000         0.000
  External Inflow ..........       137.264         0.000         0.000         0.000         0.000
  External Outflow .........       539.904         0.000         0.000         0.000         0.000
  Flooding Loss ............       316.492         0.000         0.000         0.000         0.000
  Exfiltration Loss ........         0.000         0.000         0.000         0.000         0.000
  Mass Reacted .............         0.000         0.000         0.000         0.000         0.000
  Initial Stored Mass ......         0.000         0.000         0.000         0.000         0.000
  Final Stored Mass ........       121.749         0.000         0.000         0.000         0.000
  Continuity Error (%) .....         0.745         0.000         0.000         0.000         0.000
  
  
  *************************
  Highest Continuity Errors
  *************************
  Node WS02006230 (6.86%)
  Node WS02006229 (4.33%)
  Node WS02006231 (3.90%)
  Node WS02006115 (2.82%)
  Node WS02006242 (2.66%)
  
  
  ***************************
  Time-Step Critical Elements
  ***************************
  Link 8 (87.93%)
  Link WSL2448 (10.05%)
  
  
  ********************************
  Highest Flow Instability Indexes
  ********************************
  Link WSL2302 (3)
  Link WSL2301 (3)
  Link WSL2297 (2)
  Link WSL2296 (2)
  Link WSL2298 (2)
  
  
  *************************
  Routing Time Step Summary
  *************************
  Minimum Time Step           :     0.17 sec
  Average Time Step           :     1.01 sec
  Maximum Time Step           :     5.00 sec
  Percent in Steady State     :     0.00
  Average Iterations per Step :     2.06
  Percent Not Converging      :     0.36
  
  
  ***************************
  Subcatchment Runoff Summary
  ***************************
  
  ------------------------------------------------------------------------------------------------------------------------------
                            Total      Total      Total      Total     Imperv       Perv      Total       Total     Peak  Runoff
                           Precip      Runon       Evap      Infil     Runoff     Runoff     Runoff      Runoff   Runoff   Coeff
  Subcatchment                 mm         mm         mm         mm         mm         mm         mm    10^6 ltr      MLD
  ------------------------------------------------------------------------------------------------------------------------------
  1                         25.99      35.47       0.00      10.83      14.62      17.61      32.23        0.39     7.51   0.524
  2                         25.99       0.00       0.00       8.60       6.26       3.49       9.75        0.33     6.89   0.375
  3                         25.99       0.00       0.00       8.67       6.19       2.97       9.16        0.47     9.76   0.353
  35                        25.99       0.00       0.00       8.58       6.28       3.63       9.91        0.30     6.30   0.381
  36                        25.99      19.89       0.00      10.50      10.63       7.01      17.64        1.04    19.97   0.385
  40                        25.99       5.24       0.00       9.16       7.43       4.48      11.91        0.47     9.38   0.381
  41                        25.99       0.00       0.00       8.49       6.33       4.27      10.60        0.21     4.34   0.408
  42                        25.99       0.00       0.00       8.52       6.31       4.03      10.34        0.24     4.97   0.398
  43                        25.99       0.00       0.00       8.02       6.44       7.13      13.57        0.05     1.08   0.522
  44                        25.99     292.77       0.00      16.94      78.03     178.86     256.89        0.95    19.32   0.806
  45                        25.99       0.00       0.00       8.33       6.38       5.29      11.67        0.12     2.56   0.449
  46                        25.99      16.86       0.00       9.98      10.21       9.08      19.28        0.41     7.99   0.450
  47                        25.99       0.00       0.00       8.35       6.38       5.16      11.54        0.13     2.73   0.444
  48                        25.99       8.08       0.00       9.20       8.22       7.10      15.32        0.24     4.84   0.450
  55                        25.99      12.14       0.00       9.30       9.26      10.26      19.52        0.16     3.24   0.512
  56                        25.99      18.47       0.00      10.09      10.58       9.59      20.17        0.43     8.36   0.454
  57                        25.99       0.00       0.00       8.67       6.20       2.99       9.19        0.46     9.60   0.354
  59                        25.99       0.00       0.00       8.28       6.40       5.63      12.03        0.10     2.17   0.463
  60                        25.99      26.23       0.00      10.03      12.71      18.25      30.96        0.16     3.25   0.593
  61                        25.99       0.00       0.00       8.82       5.88       1.74       7.62        1.37    28.31   0.293
  64                        25.99       0.00       0.00       8.37       6.37       5.03      11.40        0.14     2.91   0.439
  
  
  ****************************
  Subcatchment Washoff Summary
  ****************************
  
  ------------------------------------------------------------------------------------------
                                 COD         NH3-N            TN            TP            SS
  Subcatchment                    kg            kg            kg            kg            kg
  ------------------------------------------------------------------------------------------
  1                           73.168         0.000         0.000         0.000         0.000
  2                            0.000         0.000         0.000         0.000         0.000
  3                            0.000         0.000         0.000         0.000         0.000
  35                          70.855         0.000         0.000         0.000         0.000
  36                         361.009         0.000         0.000         0.000         0.000
  40                         131.131         0.000         0.000         0.000         0.000
  41                          49.575         0.000         0.000         0.000         0.000
  42                          56.439         0.000         0.000         0.000         0.000
  43                          12.274         0.000         0.000         0.000         0.000
  44                         332.692         0.000         0.000         0.000         0.000
  45                          29.656         0.000         0.000         0.000         0.000
  46                         134.970         0.000         0.000         0.000         0.000
  47                          31.528         0.000         0.000         0.000         0.000
  48                          72.080         0.000         0.000         0.000         0.000
  55                          48.256         0.000         0.000         0.000         0.000
  56                         137.672         0.000         0.000         0.000         0.000
  57                         105.566         0.000         0.000         0.000         0.000
  59                          25.074         0.000         0.000         0.000         0.000
  60                          45.009         0.000         0.000         0.000         0.000
  61                         290.145         0.000         0.000         0.000         0.000
  64                          33.600         0.000         0.000         0.000         0.000
  ------------------------------------------------------------------------------------------
  System                    2040.700         0.000         0.000         0.000         0.000
  
  
  ******************
  Node Depth Summary
  ******************
  
  ---------------------------------------------------------------------------------
                                 Average  Maximum  Maximum  Time of Max    Reported
                                   Depth    Depth      HGL   Occurrence   Max Depth
  Node                 Type       Meters   Meters   Meters  days hr:min      Meters
  ---------------------------------------------------------------------------------
  WS01000070           JUNCTION     0.00     0.00     0.00     0  00:00        0.00
  WS01000323           JUNCTION     0.00     0.00     0.00     0  00:00        0.00
  WS01000533           JUNCTION     0.00     0.00     6.86     0  00:00        0.00
  WS01005172           JUNCTION     0.00     0.00     0.00     0  00:00        0.00
  WS01005181           JUNCTION     0.00     0.00     0.00     0  00:00        0.00
  WS01009841           JUNCTION     0.00     0.00     0.00     0  00:00        0.00
  WS02000078           JUNCTION     0.00     0.00     0.00     0  00:00        0.00
  WS02000112           JUNCTION     0.00     0.00     0.00     0  00:00        0.00
  WS02000136           JUNCTION     0.00     0.00     0.00     0  00:00        0.00
  WS02004053           JUNCTION     0.00     0.00     0.00     0  00:00        0.00
  WS02004401           JUNCTION     2.16     2.36     8.36     0  03:00        2.36
  WS02005192           JUNCTION     0.42     0.52     8.39     0  02:51        0.52
  WS02005193           JUNCTION     0.46     0.56     8.38     0  02:52        0.56
  WS02005196           JUNCTION     0.44     0.54     8.39     0  02:51        0.54
  WS02006109           JUNCTION     1.58     1.79     8.41     0  03:00        1.79
  WS02006110           JUNCTION     1.60     1.81     8.41     0  03:00        1.80
  WS02006111           JUNCTION     1.60     1.81     8.39     0  03:00        1.80
  WS02006112           JUNCTION     2.05     2.26     8.38     0  03:00        2.25
  WS02006113           JUNCTION     1.60     1.81     8.40     0  03:00        1.81
  WS02006115           JUNCTION     2.07     2.27     8.37     0  03:00        2.27
  WS02006116           JUNCTION     2.13     2.33     8.37     0  03:00        2.32
  WS02006183           JUNCTION     0.00     0.00     0.00     0  00:00        0.00
  WS02006228           JUNCTION     1.55     1.77     8.42     0  03:00        1.76
  WS02006229           JUNCTION     1.51     1.72     8.41     0  03:00        1.72
  WS02006230           JUNCTION     1.46     1.66     8.41     0  03:00        1.66
  WS02006231           JUNCTION     1.31     1.51     8.41     0  03:00        1.51
  WS02006232           JUNCTION     1.19     1.38     8.41     0  03:00        1.38
  WS02006234           JUNCTION     1.07     1.25     8.41     0  03:00        1.25
  WS02006235           JUNCTION     1.06     1.24     8.41     0  03:00        1.23
  WS02006238           JUNCTION     1.05     1.23     8.41     0  03:00        1.22
  WS02006239           JUNCTION     1.02     1.19     8.40     0  03:00        1.19
  WS02006242           JUNCTION     0.94     1.09     8.39     0  03:00        1.09
  WS02006240           JUNCTION     0.95     1.11     8.40     0  03:00        1.11
  WS02006243           JUNCTION     0.83     0.97     8.39     0  03:00        0.97
  WS02006245           JUNCTION     0.76     0.89     8.38     0  03:00        0.89
  WS02006247           JUNCTION     0.74     0.87     8.38     0  03:00        0.87
  WS02006248           JUNCTION     0.66     0.78     8.37     0  02:58        0.78
  WS02006249           JUNCTION     0.66     0.77     8.37     0  02:56        0.77
  WS02006251           JUNCTION     0.60     0.71     8.38     0  02:53        0.71
  WS02006253           JUNCTION     0.48     0.58     8.38     0  02:53        0.58
  WS02618401           JUNCTION     0.00     0.00     0.00     0  00:00        0.00
  WSA1649              JUNCTION     0.00     0.00     0.00     0  00:00        0.00
  outfall-5            OUTFALL      0.12     0.18     7.85     0  02:58        0.18
  outfall-14           OUTFALL      0.11     0.16     7.82     0  03:00        0.16
  outfall-16           OUTFALL      0.00     0.00     8.39     0  00:00        0.00
  CC-storage           STORAGE      5.35     5.63     8.81     0  01:34        5.63
  
  
  *******************
  Node Inflow Summary
  *******************
  
  -------------------------------------------------------------------------------------------------
                                  Maximum  Maximum                  Lateral       Total        Flow
                                  Lateral    Total  Time of Max      Inflow      Inflow     Balance
                                   Inflow   Inflow   Occurrence      Volume      Volume       Error
  Node                 Type           MLD      MLD  days hr:min    10^6 ltr    10^6 ltr     Percent
  -------------------------------------------------------------------------------------------------
  WS01000070           JUNCTION      0.00     0.00     0  00:00           0           0       0.000 ltr
  WS01000323           JUNCTION      0.00     0.00     0  00:00           0           0       0.000 ltr
  WS01000533           JUNCTION      0.00     0.00     0  00:00           0           0       0.000 ltr
  WS01005172           JUNCTION      0.00     0.00     0  00:00           0           0       0.000 ltr
  WS01005181           JUNCTION      0.00     0.00     0  00:00           0           0       0.000 ltr
  WS01009841           JUNCTION      0.00     0.00     0  00:00           0           0       0.000 ltr
  WS02000078           JUNCTION      0.00     0.00     0  00:00           0           0       0.000 ltr
  WS02000112           JUNCTION      0.00     0.00     0  00:00           0           0       0.000 ltr
  WS02000136           JUNCTION      0.00     0.00     0  00:00           0           0       0.000 ltr
  WS02004053           JUNCTION      0.00     0.00     0  00:00           0           0       0.000 ltr
  WS02004401           JUNCTION      0.05    25.96     0  03:00      0.0086         1.3       2.235
  WS02005192           JUNCTION      9.70     9.70     0  02:46       0.475       0.475       0.546
  WS02005193           JUNCTION      0.09     9.88     0  02:46       0.014       0.502       1.476
  WS02005196           JUNCTION      0.12     9.80     0  02:46      0.0183       0.491       1.377
  WS02006109           JUNCTION      0.08    16.24     0  03:01      0.0129       0.943       2.618
  WS02006110           JUNCTION      0.08    16.31     0  03:01      0.0126       0.933       2.691
  WS02006111           JUNCTION      0.24    25.47     0  03:00      0.0352        1.34       1.555
  WS02006112           JUNCTION      0.18    25.62     0  03:00      0.0263        1.35       2.470
  WS02006113           JUNCTION      9.91    25.26     0  03:00       0.492        1.37       1.759
  WS02006115           JUNCTION      0.08    25.70     0  03:00      0.0129        1.33       2.902
  WS02006116           JUNCTION      0.24    25.91     0  03:00      0.0347        1.33       2.652
  WS02006183           JUNCTION      0.00     0.00     0  00:00           0           0       0.000 ltr
  WS02006228           JUNCTION     19.47    19.47     0  03:01       0.974        1.13       1.603
  WS02006229           JUNCTION      0.13     5.87     0  01:57      0.0193       0.364       4.525
  WS02006230           JUNCTION      0.07     5.96     0  01:57      0.0111       0.374       7.365
  WS02006231           JUNCTION      0.13     5.83     0  01:47      0.0197       0.382       4.058
  WS02006232           JUNCTION      6.97     9.94     0  03:00       0.341         0.7       2.230
  WS02006234           JUNCTION      0.14    10.05     0  03:00      0.0208       0.691       2.038
  WS02006235           JUNCTION      0.14    10.17     0  03:00      0.0215       0.688       1.136
  WS02006238           JUNCTION      0.15    10.29     0  03:00      0.0226        0.69       1.451
  WS02006239           JUNCTION      0.11    10.38     0  03:00      0.0167       0.689       2.249
  WS02006242           JUNCTION      0.08    10.52     0  03:00      0.0124       0.691       2.728
  WS02006240           JUNCTION      0.06    10.44     0  03:00     0.00952       0.687       2.435
  WS02006243           JUNCTION      0.17    10.67     0  03:00      0.0259       0.699       2.521
  WS02006245           JUNCTION      0.07    10.74     0  03:00      0.0109       0.689       1.954
  WS02006247           JUNCTION      7.64    18.34     0  03:00       0.413        1.07       1.077
  WS02006248           JUNCTION      0.12    31.04     0  02:58      0.0185        1.65       0.651
  WS02006249           JUNCTION      0.19    13.40     0  02:47      0.0275       0.715       2.068
  WS02006251           JUNCTION      3.30    13.24     0  02:47       0.171        0.69       2.145
  WS02006253           JUNCTION      0.11     9.97     0  02:46      0.0166       0.518       1.450
  WS02618401           JUNCTION      0.00     0.00     0  00:00           0           0       0.000 ltr
  WSA1649              JUNCTION      0.00     0.00     0  00:00           0           0       0.000 ltr
  outfall-5            OUTFALL       0.00    31.04     0  02:58           0        1.53       0.000
  outfall-14           OUTFALL       0.00    25.96     0  03:00           0        1.26       0.000
  outfall-16           OUTFALL       0.00     0.00     0  00:00           0           0       0.000 ltr
  CC-storage           STORAGE      29.93    29.93     0  02:49        1.65        1.65       0.007
  
  
  **********************
  Node Surcharge Summary
  **********************
  
  Surcharging occurs when water rises above the top of the highest conduit.
  ---------------------------------------------------------------------
                                               Max. Height   Min. Depth
                                   Hours       Above Crown    Below Rim
  Node                 Type      Surcharged         Meters       Meters
  ---------------------------------------------------------------------
  WS01000070           JUNCTION        3.83          0.000        0.000
  WS01000323           JUNCTION        3.83          0.000        0.000
  WS01000533           JUNCTION        3.83          0.000        2.147
  WS01005172           JUNCTION        3.83          0.000        0.000
  WS01005181           JUNCTION        3.83          0.000        0.000
  WS01009841           JUNCTION        3.83          0.000        0.000
  WS02000078           JUNCTION        3.83          0.000        0.000
  WS02000112           JUNCTION        3.83          0.000        0.000
  WS02000136           JUNCTION        3.83          0.000        0.000
  WS02004053           JUNCTION        3.83          0.000        0.000
  WS02006109           JUNCTION        2.22          0.991        0.847
  WS02006110           JUNCTION        2.23          1.005        0.840
  WS02006111           JUNCTION        2.24          1.005        0.872
  WS02006112           JUNCTION        2.44          1.255        0.428
  WS02006113           JUNCTION        2.23          1.010        0.923
  WS02006115           JUNCTION        2.46          1.269        1.030
  WS02006116           JUNCTION        2.54          1.325        1.025
  WS02006183           JUNCTION        3.83          0.000        0.000
  WS02006228           JUNCTION        2.21          0.965        1.266
  WS02006229           JUNCTION        2.19          0.924        1.530
  WS02006231           JUNCTION        2.13          0.811        0.732
  WS02006232           JUNCTION        2.08          0.682        0.807
  WS02006234           JUNCTION        2.00          0.549        0.708
  WS02006235           JUNCTION        2.00          0.537        0.757
  WS02006238           JUNCTION        2.00          0.526        0.908
  WS02006239           JUNCTION        1.99          0.492        0.837
  WS02006242           JUNCTION        1.95          0.393        0.456
  WS02006240           JUNCTION        1.95          0.408        0.995
  WS02006243           JUNCTION        1.90          0.267        0.513
  WS02006245           JUNCTION        1.88          0.192        0.663
  WS02006247           JUNCTION        1.88          0.169        0.591
  WS02006249           JUNCTION        1.58          0.072        0.316
  WS02006251           JUNCTION        0.36          0.010        1.500
  WS02618401           JUNCTION        3.83          0.000        0.000
  WSA1649              JUNCTION        3.83          0.000        0.000
  
  
  *********************
  Node Flooding Summary
  *********************
  
  Flooding refers to all water that overflows a node, whether it ponds or not.
  --------------------------------------------------------------------------
                                                             Total   Maximum
                                 Maximum   Time of Max       Flood    Ponded
                        Hours       Rate    Occurrence      Volume     Depth
  Node                 Flooded       MLD   days hr:min    10^6 ltr    Meters
  --------------------------------------------------------------------------
  CC-storage              2.26     29.93      0  02:49       1.487     0.000
  
  
  **********************
  Storage Volume Summary
  **********************
  
  --------------------------------------------------------------------------------------------------
                         Average     Avg  Evap Exfil       Maximum     Max    Time of Max    Maximum
                          Volume    Pcnt  Pcnt  Pcnt        Volume    Pcnt     Occurrence    Outflow
  Storage Unit           1000 m3    Full  Loss  Loss       1000 m3    Full    days hr:min        MLD
  --------------------------------------------------------------------------------------------------
  CC-storage               0.151      95     0     0         0.159     100       0  01:34       0.00
  
  
  ***********************
  Outfall Loading Summary
  ***********************
  
  ---------------------------------------------------------------------------------------------------------------------------------
                         Flow       Avg       Max       Total         Total         Total         Total         Total         Total
                         Freq      Flow      Flow      Volume           COD         NH3-N            TN            TP            SS
  Outfall Node           Pcnt       MLD       MLD    10^6 ltr            kg            kg            kg            kg            kg
  ---------------------------------------------------------------------------------------------------------------------------------
  outfall-5             87.99     20.24     31.04       1.529       287.973         0.000         0.000         0.000         0.000
  outfall-14            87.99     16.77     25.96       1.264       251.951         0.000         0.000         0.000         0.000
  outfall-16             0.00      0.00      0.00       0.000         0.000         0.000         0.000         0.000         0.000
  ---------------------------------------------------------------------------------------------------------------------------------
  System                58.66     37.01     56.99       2.793       539.924         0.000         0.000         0.000         0.000
  
  
  ********************
  Link Flow Summary
  ********************
  
  -----------------------------------------------------------------------------
                                 Maximum  Time of Max   Maximum    Max/    Max/
                                  |Flow|   Occurrence   |Veloc|    Full    Full
  Link                 Type          MLD  days hr:min     m/sec    Flow   Depth
  -----------------------------------------------------------------------------
  WSL2038              CONDUIT      9.69     0  02:46      0.57    0.48    0.89
  WSL2039              CONDUIT      9.87     0  02:46      0.86    0.51    0.95
  WSL2041              CONDUIT      9.79     0  02:46      0.64    0.48    0.92
  WSL2294              CONDUIT     16.24     0  03:01      0.43    0.55    1.00
  WSL2295              CONDUIT     16.31     0  03:01      0.50    0.73    1.00
  WSL2296              CONDUIT     25.47     0  03:00      0.63    0.14    1.00
  WSL2297              CONDUIT     25.62     0  03:00      0.38    0.49    1.00
  WSL2298              CONDUIT     25.26     0  03:00      0.87    1.16    1.00
  WSL2301              CONDUIT     25.71     0  03:00      0.38    0.24    1.00
  WSL2302              CONDUIT     25.91     0  03:00      0.38    0.32    1.00
  WSL2441              CONDUIT     16.16     0  03:01      0.44    0.41    1.00
  WSL2442              CONDUIT      5.89     0  01:57      0.63    0.15    1.00
  WSL2443              CONDUIT      5.70     0  01:47      0.73    0.09    1.00
  WSL2444              CONDUIT      5.84     0  01:47      0.90    0.09    1.00
  WSL2446              CONDUIT      9.94     0  03:00      0.86    0.17    1.00
  WSL2447              CONDUIT     10.05     0  03:00      0.77    0.52    1.00
  WSL2448              CONDUIT     10.16     0  03:00      0.63    0.29    1.00
  WSL2449              CONDUIT     10.28     0  03:00      0.60    0.36    1.00
  WSL2450              CONDUIT     10.38     0  03:00      0.69    0.22    1.00
  WSL2451              CONDUIT     10.44     0  03:00      0.67    0.68    1.00
  WSL2452              CONDUIT     10.52     0  03:00      0.70    0.20    1.00
  WSL2454              CONDUIT     10.67     0  03:00      0.85    0.25    1.00
  WSL2478              CONDUIT     10.74     0  03:00      0.74    0.38    1.00
  WSL2479              CONDUIT     18.34     0  03:00      0.65    0.35    1.00
  WSL2480              CONDUIT     13.40     0  02:47      0.72    0.62    1.00
  WSL2482              CONDUIT     13.23     0  02:47      0.64    0.34    1.00
  WSL2484              CONDUIT      9.96     0  02:46      0.73    0.14    0.91
  WSL2493              CONDUIT      5.75     0  01:57      0.51    0.10    1.00
  8                    CONDUIT     31.04     0  02:58      6.63    0.41    0.45
  19                   CONDUIT      0.00     0  00:00      0.00    0.00    0.00
  17                   CONDUIT     25.96     0  03:00      6.40    0.34    0.40
  CC-Pump-1            PUMP         0.00     0  00:00              0.00
  CC-Pump-2            PUMP         0.00     0  00:00              0.00
  
  
  ***************************
  Flow Classification Summary
  ***************************
  
  -------------------------------------------------------------------------------------
                      Adjusted    ---------- Fraction of Time in Flow Class ---------- 
                       /Actual         Up    Down  Sub   Sup   Up    Down  Norm  Inlet 
  Conduit               Length    Dry  Dry   Dry   Crit  Crit  Crit  Crit  Ltd   Ctrl  
  -------------------------------------------------------------------------------------
  WSL2038                 1.00   0.00  0.00  0.00  1.00  0.00  0.00  0.00  0.01  0.00
  WSL2039                 1.00   0.00  0.00  0.00  1.00  0.00  0.00  0.00  0.00  0.00
  WSL2041                 1.00   0.00  0.00  0.00  1.00  0.00  0.00  0.00  0.30  0.00
  WSL2294                 1.00   0.00  0.00  0.00  1.00  0.00  0.00  0.00  0.00  0.00
  WSL2295                 1.00   0.00  0.00  0.00  1.00  0.00  0.00  0.00  0.00  0.00
  WSL2296                 1.00   0.00  0.00  0.00  1.00  0.00  0.00  0.00  0.17  0.00
  WSL2297                 1.00   0.00  0.00  0.00  1.00  0.00  0.00  0.00  0.00  0.00
  WSL2298                 1.00   0.00  0.00  0.00  0.98  0.02  0.00  0.00  0.00  0.00
  WSL2301                 1.00   0.00  0.00  0.00  1.00  0.00  0.00  0.00  0.04  0.00
  WSL2302                 1.00   0.00  0.00  0.00  1.00  0.00  0.00  0.00  0.01  0.00
  WSL2441                 1.00   0.00  0.00  0.00  1.00  0.00  0.00  0.00  0.00  0.00
  WSL2442                 1.00   0.00  0.00  0.00  1.00  0.00  0.00  0.00  0.17  0.00
  WSL2443                 1.00   0.00  0.00  0.00  1.00  0.00  0.00  0.00  0.31  0.00
  WSL2444                 1.00   0.00  0.00  0.00  0.94  0.06  0.00  0.00  0.23  0.00
  WSL2446                 1.00   0.00  0.00  0.00  0.94  0.06  0.00  0.00  0.02  0.00
  WSL2447                 1.00   0.00  0.00  0.00  1.00  0.00  0.00  0.00  0.00  0.00
  WSL2448                 1.00   0.00  0.00  0.00  1.00  0.00  0.00  0.00  0.00  0.00
  WSL2449                 1.00   0.00  0.00  0.00  1.00  0.00  0.00  0.00  0.03  0.00
  WSL2450                 1.00   0.00  0.00  0.00  1.00  0.00  0.00  0.00  0.42  0.00
  WSL2451                 1.00   0.00  0.00  0.00  1.00  0.00  0.00  0.00  0.00  0.00
  WSL2452                 1.00   0.00  0.00  0.00  1.00  0.00  0.00  0.00  0.43  0.00
  WSL2454                 1.00   0.00  0.00  0.00  1.00  0.00  0.00  0.00  0.02  0.00
  WSL2478                 1.00   0.00  0.00  0.00  1.00  0.00  0.00  0.00  0.00  0.00
  WSL2479                 1.00   0.00  0.00  0.00  1.00  0.00  0.00  0.00  0.46  0.00
  WSL2480                 1.00   0.00  0.00  0.00  1.00  0.00  0.00  0.00  0.00  0.00
  WSL2482                 1.00   0.00  0.00  0.00  1.00  0.00  0.00  0.00  0.47  0.00
  WSL2484                 1.00   0.00  0.00  0.00  1.00  0.00  0.00  0.00  0.47  0.00
  WSL2493                 1.00   0.00  0.00  0.00  1.00  0.00  0.00  0.00  0.05  0.00
  8                       1.00   0.12  0.00  0.00  0.00  0.88  0.00  0.00  0.01  0.00
  19                      1.00   1.00  0.00  0.00  0.00  0.00  0.00  0.00  0.00  0.00
  17                      1.00   0.12  0.00  0.00  0.00  0.88  0.00  0.00  0.00  0.00
  
  
  *************************
  Conduit Surcharge Summary
  *************************
  
  ----------------------------------------------------------------------------
                                                           Hours        Hours 
                         --------- Hours Full --------   Above Full   Capacity
  Conduit                Both Ends  Upstream  Dnstream   Normal Flow   Limited
  ----------------------------------------------------------------------------
  WSL2294                     2.22      2.22      2.23      0.01         0.01
  WSL2295                     2.23      2.23      2.23      0.01         0.01
  WSL2296                     2.24      2.24      2.74      0.01         0.01
  WSL2297                     2.44      2.44      2.46      0.01         0.01
  WSL2298                     2.23      2.23      2.24      0.43         0.44
  WSL2301                     2.46      2.46      2.54      0.01         0.01
  WSL2302                     2.54      2.54      2.60      0.01         0.01
  WSL2441                     2.21      2.21      2.22      0.01         0.01
  WSL2442                     2.21      2.21      2.23      0.01         0.01
  WSL2443                     2.13      2.13      2.21      0.01         0.01
  WSL2444                     2.08      2.08      2.13      0.01         0.01
  WSL2446                     2.00      2.00      2.08      0.01         0.01
  WSL2447                     2.00      2.00      2.00      0.01         0.01
  WSL2448                     2.00      2.00      2.00      0.01         0.01
  WSL2449                     1.99      1.99      2.00      0.01         0.01
  WSL2450                     1.95      1.95      1.99      0.01         0.01
  WSL2451                     1.95      1.95      1.95      0.01         0.01
  WSL2452                     1.90      1.90      1.95      0.01         0.01
  WSL2454                     1.88      1.88      1.90      0.01         0.01
  WSL2478                     1.88      1.88      1.88      0.01         0.01
  WSL2479                     1.73      1.73      1.88      0.01         0.01
  WSL2480                     1.58      1.58      1.73      0.01         0.01
  WSL2482                     0.36      0.36      1.58      0.01         0.01
  WSL2484                     0.01      0.01      0.36      0.01         0.01
  WSL2493                     2.19      2.19      2.21      0.01         0.01
  
  
  ***************
  Pumping Summary
  ***************
  
  ---------------------------------------------------------------------------------------------------------
                                                  Min       Avg       Max     Total     Power    % Time Off
                        Percent   Number of      Flow      Flow      Flow    Volume     Usage    Pump Curve
  Pump                 Utilized   Start-Ups       MLD       MLD       MLD  10^6 ltr     Kw-hr    Low   High
  ---------------------------------------------------------------------------------------------------------
  CC-Pump-1                0.00           0      0.00      0.00      0.00     0.000      0.00    0.0    0.0
  CC-Pump-2                0.00           0      0.00      0.00      0.00     0.000      0.00    0.0    0.0
  
  
  ***************************
  Link Pollutant Load Summary
  ***************************
  
  ------------------------------------------------------------------------------------------
                                 COD         NH3-N            TN            TP            SS
  Link                            kg            kg            kg            kg            kg
  ------------------------------------------------------------------------------------------
  WSL2038                    108.373         0.000         0.000         0.000         0.000
  WSL2039                    113.511         0.000         0.000         0.000         0.000
  WSL2041                    111.044         0.000         0.000         0.000         0.000
  WSL2294                    279.235         0.000         0.000         0.000         0.000
  WSL2295                    270.557         0.000         0.000         0.000         0.000
  WSL2296                    269.044         0.000         0.000         0.000         0.000
  WSL2297                    264.771         0.000         0.000         0.000         0.000
  WSL2298                    266.828         0.000         0.000         0.000         0.000
  WSL2301                    260.294         0.000         0.000         0.000         0.000
  WSL2302                    257.330         0.000         0.000         0.000         0.000
  WSL2441                    286.986         0.000         0.000         0.000         0.000
  WSL2442                     91.566         0.000         0.000         0.000         0.000
  WSL2443                     88.039         0.000         0.000         0.000         0.000
  WSL2444                     86.028         0.000         0.000         0.000         0.000
  WSL2446                     84.680         0.000         0.000         0.000         0.000
  WSL2447                     83.662         0.000         0.000         0.000         0.000
  WSL2448                     83.479         0.000         0.000         0.000         0.000
  WSL2449                     82.055         0.000         0.000         0.000         0.000
  WSL2450                     80.612         0.000         0.000         0.000         0.000
  WSL2451                     78.899         0.000         0.000         0.000         0.000
  WSL2452                     77.547         0.000         0.000         0.000         0.000
  WSL2454                     76.097         0.000         0.000         0.000         0.000
  WSL2478                     74.994         0.000         0.000         0.000         0.000
  WSL2479                    145.846         0.000         0.000         0.000         0.000
  WSL2480                    169.485         0.000         0.000         0.000         0.000
  WSL2482                    165.524         0.000         0.000         0.000         0.000
  WSL2484                    116.877         0.000         0.000         0.000         0.000
  WSL2493                     92.488         0.000         0.000         0.000         0.000
  8                          287.973         0.000         0.000         0.000         0.000
  19                           0.000         0.000         0.000         0.000         0.000
  17                         251.951         0.000         0.000         0.000         0.000
  CC-Pump-1                    0.000         0.000         0.000         0.000         0.000
  CC-Pump-2                    0.000         0.000         0.000         0.000         0.000
  

  Analysis begun on:  Fri Aug 30 12:47:51 2019
  Analysis ended on:  Fri Aug 30 12:47:52 2019
  Total elapsed time: 00:00:01