
  EPA STORM WATER MANAGEMENT MODEL - VERSION 5.1 (Build 5.2.0.dev5)
  --------------------------------------------------------------

  
  *********************************************************
  NOTE: The summary statistics displayed in this report are
  based on results found at every computational time step,  
  not just on results from each reporting time step.
  *********************************************************
  
  ****************
  Analysis Options
  ****************
  Flow Units ............... MLD
  Process Models:
    Rainfall/Runoff ........ YES
    RDII ................... NO
    Snowmelt ............... NO
    Groundwater ............ NO
    Flow Routing ........... YES
    Ponding Allowed ........ NO
    Water Quality .......... YES
  Infiltration Method ...... GREEN_AMPT
  Flow Routing Method ...... DYNWAVE
  Surcharge Method ......... EXTRAN
  Starting Date ............ 08/28/2015 08:00:00
  Ending Date .............. 08/28/2015 11:50:00
  Antecedent Dry Days ...... 4.0
  Report Time Step ......... 00:01:00
  Wet Time Step ............ 00:01:00
  Dry Time Step ............ 00:01:00
  Routing Time Step ........ 5.00 sec
  Variable Time Step ....... YES
  Maximum Trials ........... 8
  Number of Threads ........ 1
  Head Tolerance ........... 0.001500 m
  
  
  **************************        Volume         Depth
  Runoff Quantity Continuity     hectare-m            mm
  **************************     ---------       -------
  Total Precipitation ......         0.750        12.124
  Evaporation Loss .........         0.000         0.000
  Infiltration Loss ........         0.404         6.537
  Surface Runoff ...........         0.134         2.160
  Final Storage ............         0.212         3.428
  Continuity Error (%) .....        -0.009
  
  
  **************************           COD         NH3-N            TN            TP            SS
  Runoff Quality Continuity             kg            kg            kg            kg            kg
  **************************    ----------    ----------    ----------    ----------    ----------
  Initial Buildup ..........      2504.640         0.000         0.000         0.000         0.000
  Surface Buildup ..........        20.042         0.000         0.000         0.000         0.000
  Wet Deposition ...........         0.000         0.000         0.000         0.000         0.000
  Sweeping Removal .........         0.000         0.000         0.000         0.000         0.000
  Infiltration Loss ........        41.147         0.000         0.000         0.000         0.000
  BMP Removal ..............         0.000         0.000         0.000         0.000         0.000
  Surface Runoff ...........       137.812         0.000         0.000         0.000         0.000
  Remaining Buildup ........      2345.197         0.000         0.000         0.000         0.000
  Continuity Error (%) .....         0.021         0.000         0.000         0.000         0.000
  
  
  **************************        Volume        Volume
  Flow Routing Continuity        hectare-m      10^6 ltr
  **************************     ---------     ---------
  Dry Weather Inflow .......         0.000         0.000
  Wet Weather Inflow .......         0.133         1.333
  Groundwater Inflow .......         0.000         0.000
  RDII Inflow ..............         0.000         0.000
  External Inflow ..........         0.082         0.822
  External Outflow .........         0.088         0.876
  Flooding Loss ............         0.062         0.617
  Evaporation Loss .........         0.000         0.000
  Exfiltration Loss ........         0.000         0.000
  Initial Stored Volume ....         0.000         0.000
  Final Stored Volume ......         0.062         0.619
  Continuity Error (%) .....         1.993
  
  
  **************************           COD         NH3-N            TN            TP            SS
  Quality Routing Continuity            kg            kg            kg            kg            kg
  **************************    ----------    ----------    ----------    ----------    ----------
  Dry Weather Inflow .......         0.000         0.000         0.000         0.000         0.000
  Wet Weather Inflow .......       137.497         0.000         0.000         0.000         0.000
  Groundwater Inflow .......         0.000         0.000         0.000         0.000         0.000
  RDII Inflow ..............         0.000         0.000         0.000         0.000         0.000
  External Inflow ..........       137.266         0.000         0.000         0.000         0.000
  External Outflow .........       107.386         0.000         0.000         0.000         0.000
  Flooding Loss ............        73.744         0.000         0.000         0.000         0.000
  Exfiltration Loss ........         0.000         0.000         0.000         0.000         0.000
  Mass Reacted .............         0.000         0.000         0.000         0.000         0.000
  Initial Stored Mass ......         0.000         0.000         0.000         0.000         0.000
  Final Stored Mass ........        86.230         0.000         0.000         0.000         0.000
  Continuity Error (%) .....         2.694         0.000         0.000         0.000         0.000
  
  
  *************************
  Highest Continuity Errors
  *************************
  Node WS02006230 (9.89%)
  Node WS02006115 (8.38%)
  Node WS02006116 (7.78%)
  Node WS02006112 (6.99%)
  Node WS02006110 (6.89%)
  
  
  ***************************
  Time-Step Critical Elements
  ***************************
  Link 8 (80.17%)
  Link WSL2448 (15.80%)
  
  
  ********************************
  Highest Flow Instability Indexes
  ********************************
  Link WSL2302 (5)
  Link WSL2301 (4)
  Link WSL2297 (4)
  Link WSL2296 (3)
  Link WSL2298 (3)
  
  
  *************************
  Routing Time Step Summary
  *************************
  Minimum Time Step           :     0.43 sec
  Average Time Step           :     1.41 sec
  Maximum Time Step           :     5.00 sec
  Percent in Steady State     :    -0.00
  Average Iterations per Step :     2.06
  Percent Not Converging      :     0.29
  
  
  ***************************
  Subcatchment Runoff Summary
  ***************************
  
  ------------------------------------------------------------------------------------------------------------------------------
                            Total      Total      Total      Total     Imperv       Perv      Total       Total     Peak  Runoff
                           Precip      Runon       Evap      Infil     Runoff     Runoff     Runoff      Runoff   Runoff   Coeff
  Subcatchment                 mm         mm         mm         mm         mm         mm         mm    10^6 ltr      MLD
  ------------------------------------------------------------------------------------------------------------------------------
  1                         12.12      10.21       0.00       7.52       5.25       3.03       8.28        0.10     2.03   0.371
  2                         12.12       0.00       0.00       6.28       2.82       0.52       3.35        0.11     2.37   0.276
  3                         12.12       0.00       0.00       6.29       2.77       0.44       3.21        0.16     3.39   0.264
  35                        12.12       0.00       0.00       6.27       2.84       0.55       3.38        0.10     2.16   0.279
  36                        12.12       6.33       0.00       7.25       4.15       1.11       5.26        0.31     6.21   0.285
  40                        12.12       1.75       0.00       6.57       3.20       0.70       3.90        0.15     3.16   0.281
  41                        12.12       0.00       0.00       6.25       2.88       0.67       3.54        0.07     1.47   0.292
  42                        12.12       0.00       0.00       6.26       2.86       0.62       3.49        0.08     1.69   0.287
  43                        12.12       0.00       0.00       6.14       2.97       1.29       4.26        0.02     0.35   0.352
  44                        12.12      87.59       0.00      11.77      24.21      43.70      67.90        0.25     4.86   0.681
  45                        12.12       0.00       0.00       6.22       2.93       0.87       3.79        0.04     0.86   0.313
  46                        12.12       5.28       0.00       7.05       4.08       1.51       5.59        0.12     2.48   0.321
  47                        12.12       0.00       0.00       6.22       2.92       0.84       3.76        0.04     0.91   0.310
  48                        12.12       2.64       0.00       6.66       3.51       1.19       4.70        0.07     1.58   0.318
  55                        12.12       3.92       0.00       6.79       3.86       1.85       5.71        0.05     1.03   0.356
  56                        12.12       5.81       0.00       7.11       4.19       1.60       5.80        0.12     2.56   0.323
  57                        12.12       0.00       0.00       6.29       2.77       0.44       3.21        0.16     3.33   0.265
  59                        12.12       0.00       0.00       6.21       2.94       0.94       3.88        0.03     0.72   0.320
  60                        12.12       8.59       0.00       7.30       5.01       3.70       8.71        0.05     0.97   0.421
  61                        12.12       0.00       0.00       6.32       2.54       0.24       2.78        0.50    10.11   0.229
  64                        12.12       0.00       0.00       6.23       2.92       0.81       3.73        0.04     0.98   0.308
  
  
  ****************************
  Subcatchment Washoff Summary
  ****************************
  
  ------------------------------------------------------------------------------------------
                                 COD         NH3-N            TN            TP            SS
  Subcatchment                    kg            kg            kg            kg            kg
  ------------------------------------------------------------------------------------------
  1                            8.643         0.000         0.000         0.000         0.000
  2                            0.000         0.000         0.000         0.000         0.000
  3                            0.000         0.000         0.000         0.000         0.000
  35                          10.637         0.000         0.000         0.000         0.000
  36                          60.290         0.000         0.000         0.000         0.000
  40                          19.720         0.000         0.000         0.000         0.000
  41                           7.418         0.000         0.000         0.000         0.000
  42                           8.450         0.000         0.000         0.000         0.000
  43                           1.961         0.000         0.000         0.000         0.000
  44                          60.210         0.000         0.000         0.000         0.000
  45                           4.467         0.000         0.000         0.000         0.000
  46                          23.292         0.000         0.000         0.000         0.000
  47                           4.741         0.000         0.000         0.000         0.000
  48                          11.465         0.000         0.000         0.000         0.000
  55                           8.785         0.000         0.000         0.000         0.000
  56                          25.726         0.000         0.000         0.000         0.000
  57                          15.962         0.000         0.000         0.000         0.000
  59                           3.800         0.000         0.000         0.000         0.000
  60                          11.617         0.000         0.000         0.000         0.000
  61                          44.212         0.000         0.000         0.000         0.000
  64                           5.045         0.000         0.000         0.000         0.000
  ------------------------------------------------------------------------------------------
  System                     336.441         0.000         0.000         0.000         0.000
  
  
  ******************
  Node Depth Summary
  ******************
  
  ---------------------------------------------------------------------------------
                                 Average  Maximum  Maximum  Time of Max    Reported
                                   Depth    Depth      HGL   Occurrence   Max Depth
  Node                 Type       Meters   Meters   Meters  days hr:min      Meters
  ---------------------------------------------------------------------------------
  WS01000070           JUNCTION     0.00     0.00     0.00     0  00:00        0.00
  WS01000323           JUNCTION     0.00     0.00     0.00     0  00:00        0.00
  WS01000533           JUNCTION     0.00     0.00     6.86     0  00:00        0.00
  WS01005172           JUNCTION     0.00     0.00     0.00     0  00:00        0.00
  WS01005181           JUNCTION     0.00     0.00     0.00     0  00:00        0.00
  WS01009841           JUNCTION     0.00     0.00     0.00     0  00:00        0.00
  WS02000078           JUNCTION     0.00     0.00     0.00     0  00:00        0.00
  WS02000112           JUNCTION     0.00     0.00     0.00     0  00:00        0.00
  WS02000136           JUNCTION     0.00     0.00     0.00     0  00:00        0.00
  WS02004053           JUNCTION     0.00     0.00     0.00     0  00:00        0.00
  WS02004401           JUNCTION     2.04     2.29     8.29     0  03:01        2.29
  WS02005192           JUNCTION     0.34     0.44     8.31     0  02:16        0.43
  WS02005193           JUNCTION     0.38     0.48     8.30     0  02:16        0.48
  WS02005196           JUNCTION     0.36     0.45     8.30     0  02:16        0.45
  WS02006109           JUNCTION     1.45     1.68     8.30     0  03:00        1.68
  WS02006110           JUNCTION     1.46     1.70     8.30     0  03:00        1.70
  WS02006111           JUNCTION     1.48     1.72     8.30     0  03:00        1.71
  WS02006112           JUNCTION     1.92     2.18     8.30     0  03:00        2.17
  WS02006113           JUNCTION     1.47     1.71     8.30     0  03:00        1.71
  WS02006115           JUNCTION     1.94     2.19     8.29     0  03:00        2.19
  WS02006116           JUNCTION     2.00     2.25     8.29     0  03:00        2.25
  WS02006183           JUNCTION     0.00     0.00     0.00     0  00:00        0.00
  WS02006228           JUNCTION     1.42     1.65     8.30     0  03:00        1.65
  WS02006229           JUNCTION     1.38     1.61     8.30     0  03:00        1.61
  WS02006230           JUNCTION     1.32     1.55     8.30     0  03:01        1.55
  WS02006231           JUNCTION     1.18     1.40     8.30     0  03:01        1.40
  WS02006232           JUNCTION     1.07     1.27     8.30     0  03:00        1.27
  WS02006234           JUNCTION     0.95     1.14     8.30     0  03:00        1.14
  WS02006235           JUNCTION     0.95     1.13     8.30     0  03:00        1.13
  WS02006238           JUNCTION     0.94     1.12     8.30     0  03:00        1.12
  WS02006239           JUNCTION     0.91     1.09     8.30     0  03:00        1.09
  WS02006242           JUNCTION     0.83     1.00     8.30     0  03:00        1.00
  WS02006240           JUNCTION     0.84     1.01     8.30     0  03:00        1.01
  WS02006243           JUNCTION     0.72     0.88     8.30     0  03:00        0.88
  WS02006245           JUNCTION     0.66     0.81     8.30     0  03:00        0.80
  WS02006247           JUNCTION     0.65     0.78     8.29     0  03:00        0.78
  WS02006248           JUNCTION     0.58     0.70     8.29     0  03:01        0.70
  WS02006249           JUNCTION     0.57     0.69     8.29     0  03:01        0.69
  WS02006251           JUNCTION     0.51     0.62     8.29     0  03:01        0.62
  WS02006253           JUNCTION     0.40     0.50     8.30     0  02:16        0.49
  WS02618401           JUNCTION     0.00     0.00     0.00     0  00:00        0.00
  WSA1649              JUNCTION     0.00     0.00     0.00     0  00:00        0.00
  outfall-5            OUTFALL      0.07     0.10     7.77     0  03:01        0.10
  outfall-14           OUTFALL      0.06     0.09     7.75     0  03:01        0.09
  outfall-16           OUTFALL      0.00     0.00     8.39     0  00:00        0.00
  CC-storage           STORAGE      5.22     5.63     8.81     0  01:41        5.63
  
  
  *******************
  Node Inflow Summary
  *******************
  
  -------------------------------------------------------------------------------------------------
                                  Maximum  Maximum                  Lateral       Total        Flow
                                  Lateral    Total  Time of Max      Inflow      Inflow     Balance
                                   Inflow   Inflow   Occurrence      Volume      Volume       Error
  Node                 Type           MLD      MLD  days hr:min    10^6 ltr    10^6 ltr     Percent
  -------------------------------------------------------------------------------------------------
  WS01000070           JUNCTION      0.00     0.00     0  00:00           0           0       0.000 ltr
  WS01000323           JUNCTION      0.00     0.00     0  00:00           0           0       0.000 ltr
  WS01000533           JUNCTION      0.00     0.00     0  00:00           0           0       0.000 ltr
  WS01005172           JUNCTION      0.00     0.00     0  00:00           0           0       0.000 ltr
  WS01005181           JUNCTION      0.00     0.00     0  00:00           0           0       0.000 ltr
  WS01009841           JUNCTION      0.00     0.00     0  00:00           0           0       0.000 ltr
  WS02000078           JUNCTION      0.00     0.00     0  00:00           0           0       0.000 ltr
  WS02000112           JUNCTION      0.00     0.00     0  00:00           0           0       0.000 ltr
  WS02000136           JUNCTION      0.00     0.00     0  00:00           0           0       0.000 ltr
  WS02004053           JUNCTION      0.00     0.00     0  00:00           0           0       0.000 ltr
  WS02004401           JUNCTION      0.05     8.94     0  03:01      0.0086       0.419       7.119
  WS02005192           JUNCTION      3.42     3.42     0  03:01       0.177       0.177       1.295
  WS02005193           JUNCTION      0.09     3.61     0  03:01       0.014       0.205       3.313
  WS02005196           JUNCTION      0.12     3.52     0  03:01      0.0183       0.194       3.161
  WS02006109           JUNCTION      0.08     4.76     0  03:01      0.0129        0.37       7.076
  WS02006110           JUNCTION      0.08     4.84     0  03:01      0.0126       0.359       7.397
  WS02006111           JUNCTION      0.24     8.46     0  03:01      0.0352        0.47       4.643
  WS02006112           JUNCTION      0.18     8.61     0  03:01      0.0263       0.473       7.511
  WS02006113           JUNCTION      3.53     8.27     0  03:01       0.189       0.492       5.101
  WS02006115           JUNCTION      0.08     8.69     0  03:01      0.0129       0.455       9.144
  WS02006116           JUNCTION      0.24     8.88     0  03:01      0.0347       0.455       8.440
  WS02006183           JUNCTION      0.00     0.00     0  00:00           0           0       0.000 ltr
  WS02006228           JUNCTION      5.01     5.01     0  03:03       0.278       0.436       4.383
  WS02006229           JUNCTION      0.13     3.65     0  01:59      0.0193       0.243       7.192
  WS02006230           JUNCTION      0.07     3.70     0  01:59      0.0111       0.253      10.981
  WS02006231           JUNCTION      0.13     4.04     0  01:56      0.0197       0.259       6.240
  WS02006232           JUNCTION      2.44     5.00     0  01:56       0.126       0.364       4.435
  WS02006234           JUNCTION      0.14     4.83     0  02:00      0.0208       0.358       4.030
  WS02006235           JUNCTION      0.14     5.13     0  01:59      0.0215       0.353       2.371
  WS02006238           JUNCTION      0.15     5.07     0  02:02      0.0226       0.352       3.022
  WS02006239           JUNCTION      0.11     4.84     0  02:14      0.0167        0.35       4.567
  WS02006242           JUNCTION      0.08     4.99     0  02:14      0.0124       0.349       5.577
  WS02006240           JUNCTION      0.06     4.91     0  02:14     0.00952       0.346       4.991
  WS02006243           JUNCTION      0.17     5.14     0  02:14      0.0259       0.354       5.102
  WS02006245           JUNCTION      0.07     5.17     0  02:14      0.0109       0.342       4.024
  WS02006247           JUNCTION      2.17     6.18     0  02:15       0.124       0.432       2.697
  WS02006248           JUNCTION      0.12    11.04     0  03:01      0.0185       0.608       1.724
  WS02006249           JUNCTION      0.19     5.31     0  02:14      0.0275       0.303       4.835
  WS02006251           JUNCTION      1.08     4.76     0  03:01      0.0567       0.279       5.149
  WS02006253           JUNCTION      0.11     3.71     0  03:01      0.0166       0.221       3.139
  WS02618401           JUNCTION      0.00     0.00     0  00:00           0           0       0.000 ltr
  WSA1649              JUNCTION      0.00     0.00     0  00:00           0           0       0.000 ltr
  outfall-5            OUTFALL       0.00    11.04     0  03:01           0       0.491       0.000
  outfall-14           OUTFALL       0.00     8.93     0  03:01           0       0.385       0.000
  outfall-16           OUTFALL       0.00     0.00     0  00:00           0           0       0.000 ltr
  CC-storage           STORAGE      11.57    11.57     0  03:01       0.776       0.776      -0.002
  
  
  **********************
  Node Surcharge Summary
  **********************
  
  Surcharging occurs when water rises above the top of the highest conduit.
  ---------------------------------------------------------------------
                                               Max. Height   Min. Depth
                                   Hours       Above Crown    Below Rim
  Node                 Type      Surcharged         Meters       Meters
  ---------------------------------------------------------------------
  WS01000070           JUNCTION        3.83          0.000        0.000
  WS01000323           JUNCTION        3.83          0.000        0.000
  WS01000533           JUNCTION        3.83          0.000        2.147
  WS01005172           JUNCTION        3.83          0.000        0.000
  WS01005181           JUNCTION        3.83          0.000        0.000
  WS01009841           JUNCTION        3.83          0.000        0.000
  WS02000078           JUNCTION        3.83          0.000        0.000
  WS02000112           JUNCTION        3.83          0.000        0.000
  WS02000136           JUNCTION        3.83          0.000        0.000
  WS02004053           JUNCTION        3.83          0.000        0.000
  WS02006109           JUNCTION        2.11          0.881        0.957
  WS02006110           JUNCTION        2.13          0.900        0.945
  WS02006111           JUNCTION        2.14          0.918        0.959
  WS02006112           JUNCTION        2.40          1.176        0.507
  WS02006113           JUNCTION        2.14          0.910        1.023
  WS02006115           JUNCTION        2.43          1.194        1.105
  WS02006116           JUNCTION        2.52          1.253        1.097
  WS02006183           JUNCTION        3.83          0.000        0.000
  WS02006228           JUNCTION        2.09          0.851        1.380
  WS02006229           JUNCTION        2.07          0.810        1.644
  WS02006231           JUNCTION        1.99          0.699        0.844
  WS02006232           JUNCTION        1.89          0.569        0.920
  WS02006234           JUNCTION        1.80          0.439        0.818
  WS02006235           JUNCTION        1.80          0.429        0.865
  WS02006238           JUNCTION        1.79          0.419        1.015
  WS02006239           JUNCTION        1.77          0.388        0.941
  WS02006242           JUNCTION        1.71          0.297        0.552
  WS02006240           JUNCTION        1.71          0.307        1.096
  WS02006243           JUNCTION        1.64          0.176        0.604
  WS02006245           JUNCTION        1.61          0.106        0.749
  WS02006247           JUNCTION        1.60          0.085        0.675
  WS02618401           JUNCTION        3.83          0.000        0.000
  WSA1649              JUNCTION        3.83          0.000        0.000
  
  
  *********************
  Node Flooding Summary
  *********************
  
  Flooding refers to all water that overflows a node, whether it ponds or not.
  --------------------------------------------------------------------------
                                                             Total   Maximum
                                 Maximum   Time of Max       Flood    Ponded
                        Hours       Rate    Occurrence      Volume     Depth
  Node                 Flooded       MLD   days hr:min    10^6 ltr    Meters
  --------------------------------------------------------------------------
  CC-storage              2.15     11.56      0  03:01       0.617     0.000
  
  
  **********************
  Storage Volume Summary
  **********************
  
  --------------------------------------------------------------------------------------------------
                         Average     Avg  Evap Exfil       Maximum     Max    Time of Max    Maximum
                          Volume    Pcnt  Pcnt  Pcnt        Volume    Pcnt     Occurrence    Outflow
  Storage Unit           1000 m3    Full  Loss  Loss       1000 m3    Full    days hr:min        MLD
  --------------------------------------------------------------------------------------------------
  CC-storage               0.148      93     0     0         0.159     100       0  01:41       0.00
  
  
  ***********************
  Outfall Loading Summary
  ***********************
  
  ---------------------------------------------------------------------------------------------------------------------------------
                         Flow       Avg       Max       Total         Total         Total         Total         Total         Total
                         Freq      Flow      Flow      Volume           COD         NH3-N            TN            TP            SS
  Outfall Node           Pcnt       MLD       MLD    10^6 ltr            kg            kg            kg            kg            kg
  ---------------------------------------------------------------------------------------------------------------------------------
  outfall-5             80.99      7.49     11.04       0.491        60.320         0.000         0.000         0.000         0.000
  outfall-14            80.96      5.88      8.93       0.385        47.073         0.000         0.000         0.000         0.000
  outfall-16             0.00      0.00      0.00       0.000         0.000         0.000         0.000         0.000         0.000
  ---------------------------------------------------------------------------------------------------------------------------------
  System                53.98     13.37     19.96       0.876       107.393         0.000         0.000         0.000         0.000
  
  
  ********************
  Link Flow Summary
  ********************
  
  -----------------------------------------------------------------------------
                                 Maximum  Time of Max   Maximum    Max/    Max/
                                  |Flow|   Occurrence   |Veloc|    Full    Full
  Link                 Type          MLD  days hr:min     m/sec    Flow   Depth
  -----------------------------------------------------------------------------
  WSL2038              CONDUIT      3.42     0  03:01      0.48    0.17    0.74
  WSL2039              CONDUIT      3.62     0  03:01      0.72    0.19    0.81
  WSL2041              CONDUIT      3.53     0  03:01      0.53    0.17    0.77
  WSL2294              CONDUIT      4.76     0  03:01      0.43    0.16    1.00
  WSL2295              CONDUIT      4.84     0  03:01      0.50    0.22    1.00
  WSL2296              CONDUIT      8.46     0  03:01      0.63    0.05    1.00
  WSL2297              CONDUIT      8.61     0  03:01      0.34    0.17    1.00
  WSL2298              CONDUIT      8.27     0  03:01      0.87    0.38    1.00
  WSL2301              CONDUIT      8.69     0  03:01      0.29    0.08    1.00
  WSL2302              CONDUIT      8.88     0  03:01      0.23    0.11    1.00
  WSL2441              CONDUIT      4.68     0  03:01      0.44    0.12    1.00
  WSL2442              CONDUIT      3.63     0  01:59      0.63    0.09    1.00
  WSL2443              CONDUIT      3.91     0  01:56      0.73    0.06    1.00
  WSL2444              CONDUIT      4.04     0  01:56      0.88    0.06    1.00
  WSL2446              CONDUIT      4.71     0  02:00      0.84    0.08    1.00
  WSL2447              CONDUIT      4.98     0  01:59      0.70    0.26    1.00
  WSL2448              CONDUIT      4.94     0  02:02      0.56    0.14    1.00
  WSL2449              CONDUIT      4.74     0  02:14      0.54    0.17    1.00
  WSL2450              CONDUIT      4.85     0  02:14      0.63    0.10    1.00
  WSL2451              CONDUIT      4.91     0  02:14      0.60    0.32    1.00
  WSL2452              CONDUIT      4.99     0  02:14      0.61    0.10    1.00
  WSL2454              CONDUIT      5.11     0  02:14      0.76    0.12    1.00
  WSL2478              CONDUIT      5.27     0  02:15      0.65    0.19    1.00
  WSL2479              CONDUIT      6.26     0  02:15      0.58    0.12    1.00
  WSL2480              CONDUIT      5.15     0  02:14      0.62    0.24    1.00
  WSL2482              CONDUIT      4.79     0  03:02      0.54    0.12    0.94
  WSL2484              CONDUIT      3.73     0  03:01      0.65    0.05    0.80
  WSL2493              CONDUIT      3.53     0  01:59      0.51    0.06    1.00
  8                    CONDUIT     11.04     0  03:01      4.98    0.15    0.26
  19                   CONDUIT      0.00     0  00:00      0.00    0.00    0.00
  17                   CONDUIT      8.93     0  03:01      4.74    0.12    0.23
  CC-Pump-1            PUMP         0.00     0  00:00              0.00
  CC-Pump-2            PUMP         0.00     0  00:00              0.00
  
  
  ***************************
  Flow Classification Summary
  ***************************
  
  -------------------------------------------------------------------------------------
                      Adjusted    ---------- Fraction of Time in Flow Class ---------- 
                       /Actual         Up    Down  Sub   Sup   Up    Down  Norm  Inlet 
  Conduit               Length    Dry  Dry   Dry   Crit  Crit  Crit  Crit  Ltd   Ctrl  
  -------------------------------------------------------------------------------------
  WSL2038                 1.00   0.00  0.00  0.00  1.00  0.00  0.00  0.00  0.01  0.00
  WSL2039                 1.00   0.00  0.00  0.00  1.00  0.00  0.00  0.00  0.01  0.00
  WSL2041                 1.00   0.00  0.00  0.00  1.00  0.00  0.00  0.00  0.34  0.00
  WSL2294                 1.00   0.00  0.00  0.00  1.00  0.00  0.00  0.00  0.00  0.00
  WSL2295                 1.00   0.00  0.00  0.00  1.00  0.00  0.00  0.00  0.00  0.00
  WSL2296                 1.00   0.00  0.00  0.00  1.00  0.00  0.00  0.00  0.17  0.00
  WSL2297                 1.00   0.00  0.00  0.00  1.00  0.00  0.00  0.00  0.00  0.00
  WSL2298                 1.00   0.00  0.00  0.00  0.97  0.03  0.00  0.00  0.00  0.00
  WSL2301                 1.00   0.00  0.00  0.00  1.00  0.00  0.00  0.00  0.04  0.00
  WSL2302                 1.00   0.00  0.00  0.00  1.00  0.00  0.00  0.00  0.01  0.00
  WSL2441                 1.00   0.00  0.00  0.00  1.00  0.00  0.00  0.00  0.00  0.00
  WSL2442                 1.00   0.00  0.00  0.00  1.00  0.00  0.00  0.00  0.17  0.00
  WSL2443                 1.00   0.00  0.00  0.00  1.00  0.00  0.00  0.00  0.31  0.00
  WSL2444                 1.00   0.00  0.00  0.00  0.91  0.09  0.00  0.00  0.24  0.00
  WSL2446                 1.00   0.00  0.00  0.00  0.90  0.10  0.00  0.00  0.03  0.00
  WSL2447                 1.00   0.00  0.00  0.00  1.00  0.00  0.00  0.00  0.00  0.00
  WSL2448                 1.00   0.00  0.00  0.00  1.00  0.00  0.00  0.00  0.00  0.00
  WSL2449                 1.00   0.00  0.00  0.00  1.00  0.00  0.00  0.00  0.03  0.00
  WSL2450                 1.00   0.00  0.00  0.00  1.00  0.00  0.00  0.00  0.45  0.00
  WSL2451                 1.00   0.00  0.00  0.00  1.00  0.00  0.00  0.00  0.00  0.00
  WSL2452                 1.00   0.00  0.00  0.00  1.00  0.00  0.00  0.00  0.46  0.00
  WSL2454                 1.00   0.00  0.00  0.00  1.00  0.00  0.00  0.00  0.02  0.00
  WSL2478                 1.00   0.00  0.00  0.00  1.00  0.00  0.00  0.00  0.00  0.00
  WSL2479                 1.00   0.00  0.00  0.00  1.00  0.00  0.00  0.00  0.50  0.00
  WSL2480                 1.00   0.00  0.00  0.00  1.00  0.00  0.00  0.00  0.00  0.00
  WSL2482                 1.00   0.00  0.00  0.00  1.00  0.00  0.00  0.00  0.52  0.00
  WSL2484                 1.00   0.00  0.00  0.00  1.00  0.00  0.00  0.00  0.52  0.00
  WSL2493                 1.00   0.00  0.00  0.00  1.00  0.00  0.00  0.00  0.05  0.00
  8                       1.00   0.19  0.00  0.00  0.00  0.81  0.00  0.00  0.02  0.00
  19                      1.00   1.00  0.00  0.00  0.00  0.00  0.00  0.00  0.00  0.00
  17                      1.00   0.19  0.00  0.00  0.00  0.81  0.00  0.00  0.00  0.00
  
  
  *************************
  Conduit Surcharge Summary
  *************************
  
  ----------------------------------------------------------------------------
                                                           Hours        Hours 
                         --------- Hours Full --------   Above Full   Capacity
  Conduit                Both Ends  Upstream  Dnstream   Normal Flow   Limited
  ----------------------------------------------------------------------------
  WSL2294                     2.11      2.11      2.13      0.01         0.01
  WSL2295                     2.13      2.13      2.14      0.01         0.01
  WSL2296                     2.14      2.14      2.74      0.01         0.01
  WSL2297                     2.40      2.40      2.43      0.01         0.01
  WSL2298                     2.14      2.14      2.14      0.01         0.01
  WSL2301                     2.43      2.43      2.52      0.01         0.01
  WSL2302                     2.52      2.52      2.59      0.01         0.01
  WSL2441                     2.09      2.09      2.11      0.01         0.01
  WSL2442                     2.09      2.09      2.13      0.01         0.01
  WSL2443                     1.99      1.99      2.09      0.01         0.01
  WSL2444                     1.89      1.89      1.99      0.01         0.01
  WSL2446                     1.80      1.80      1.89      0.01         0.01
  WSL2447                     1.80      1.80      1.80      0.01         0.01
  WSL2448                     1.79      1.79      1.80      0.01         0.01
  WSL2449                     1.77      1.77      1.79      0.01         0.01
  WSL2450                     1.71      1.71      1.77      0.01         0.01
  WSL2451                     1.71      1.71      1.71      0.01         0.01
  WSL2452                     1.64      1.64      1.71      0.01         0.01
  WSL2454                     1.61      1.61      1.64      0.01         0.01
  WSL2478                     1.60      1.60      1.61      0.01         0.01
  WSL2479                     0.10      0.10      1.60      0.01         0.01
  WSL2480                     0.01      0.01      0.10      0.01         0.01
  WSL2493                     2.07      2.07      2.09      0.01         0.01
  
  
  ***************
  Pumping Summary
  ***************
  
  ---------------------------------------------------------------------------------------------------------
                                                  Min       Avg       Max     Total     Power    % Time Off
                        Percent   Number of      Flow      Flow      Flow    Volume     Usage    Pump Curve
  Pump                 Utilized   Start-Ups       MLD       MLD       MLD  10^6 ltr     Kw-hr    Low   High
  ---------------------------------------------------------------------------------------------------------
  CC-Pump-1                0.00           0      0.00      0.00      0.00     0.000      0.00    0.0    0.0
  CC-Pump-2                0.00           0      0.00      0.00      0.00     0.000      0.00    0.0    0.0
  
  
  ***************************
  Link Pollutant Load Summary
  ***************************
  
  ------------------------------------------------------------------------------------------
                                 COD         NH3-N            TN            TP            SS
  Link                            kg            kg            kg            kg            kg
  ------------------------------------------------------------------------------------------
  WSL2038                     18.744         0.000         0.000         0.000         0.000
  WSL2039                     23.901         0.000         0.000         0.000         0.000
  WSL2041                     21.543         0.000         0.000         0.000         0.000
  WSL2294                     60.421         0.000         0.000         0.000         0.000
  WSL2295                     53.694         0.000         0.000         0.000         0.000
  WSL2296                     54.467         0.000         0.000         0.000         0.000
  WSL2297                     53.475         0.000         0.000         0.000         0.000
  WSL2298                     51.407         0.000         0.000         0.000         0.000
  WSL2301                     51.965         0.000         0.000         0.000         0.000
  WSL2302                     52.482         0.000         0.000         0.000         0.000
  WSL2441                     65.899         0.000         0.000         0.000         0.000
  WSL2442                     44.412         0.000         0.000         0.000         0.000
  WSL2443                     42.615         0.000         0.000         0.000         0.000
  WSL2444                     41.601         0.000         0.000         0.000         0.000
  WSL2446                     40.946         0.000         0.000         0.000         0.000
  WSL2447                     40.342         0.000         0.000         0.000         0.000
  WSL2448                     40.049         0.000         0.000         0.000         0.000
  WSL2449                     39.522         0.000         0.000         0.000         0.000
  WSL2450                     39.258         0.000         0.000         0.000         0.000
  WSL2451                     39.089         0.000         0.000         0.000         0.000
  WSL2452                     39.430         0.000         0.000         0.000         0.000
  WSL2454                     38.954         0.000         0.000         0.000         0.000
  WSL2478                     38.591         0.000         0.000         0.000         0.000
  WSL2479                     45.915         0.000         0.000         0.000         0.000
  WSL2480                     39.929         0.000         0.000         0.000         0.000
  WSL2482                     36.009         0.000         0.000         0.000         0.000
  WSL2484                     26.827         0.000         0.000         0.000         0.000
  WSL2493                     44.284         0.000         0.000         0.000         0.000
  8                           60.320         0.000         0.000         0.000         0.000
  19                           0.000         0.000         0.000         0.000         0.000
  17                          47.073         0.000         0.000         0.000         0.000
  CC-Pump-1                    0.000         0.000         0.000         0.000         0.000
  CC-Pump-2                    0.000         0.000         0.000         0.000         0.000
  

  Analysis begun on:  Fri Aug 30 12:47:32 2019
  Analysis ended on:  Fri Aug 30 12:47:32 2019
  Total elapsed time: < 1 sec