
  EPA STORM WATER MANAGEMENT MODEL - VERSION 5.1 (Build 5.2.0.dev5)
  --------------------------------------------------------------

  
  *********************************************************
  NOTE: The summary statistics displayed in this report are
  based on results found at every computational time step,  
  not just on results from each reporting time step.
  *********************************************************
  
  ****************
  Analysis Options
  ****************
  Flow Units ............... MLD
  Process Models:
    Rainfall/Runoff ........ YES
    RDII ................... NO
    Snowmelt ............... NO
    Groundwater ............ NO
    Flow Routing ........... YES
    Ponding Allowed ........ NO
    Water Quality .......... YES
  Infiltration Method ...... GREEN_AMPT
  Flow Routing Method ...... DYNWAVE
  Surcharge Method ......... EXTRAN
  Starting Date ............ 08/28/2015 08:00:00
  Ending Date .............. 08/28/2015 11:50:00
  Antecedent Dry Days ...... 4.0
  Report Time Step ......... 00:01:00
  Wet Time Step ............ 00:01:00
  Dry Time Step ............ 00:01:00
  Routing Time Step ........ 5.00 sec
  Variable Time Step ....... YES
  Maximum Trials ........... 8
  Number of Threads ........ 1
  Head Tolerance ........... 0.001500 m
  
  
  **************************        Volume         Depth
  Runoff Quantity Continuity     hectare-m            mm
  **************************     ---------       -------
  Total Precipitation ......         1.737        28.073
  Evaporation Loss .........         0.000         0.000
  Infiltration Loss ........         0.604         9.760
  Surface Runoff ...........         0.485         7.845
  Final Storage ............         0.648        10.468
  Continuity Error (%) .....        -0.004
  
  
  **************************           COD         NH3-N            TN            TP            SS
  Runoff Quality Continuity             kg            kg            kg            kg            kg
  **************************    ----------    ----------    ----------    ----------    ----------
  Initial Buildup ..........      2504.640         0.000         0.000         0.000         0.000
  Surface Buildup ..........        19.498         0.000         0.000         0.000         0.000
  Wet Deposition ...........         0.000         0.000         0.000         0.000         0.000
  Sweeping Removal .........         0.000         0.000         0.000         0.000         0.000
  Infiltration Loss ........       170.005         0.000         0.000         0.000         0.000
  BMP Removal ..............         0.000         0.000         0.000         0.000         0.000
  Surface Runoff ...........       985.981         0.000         0.000         0.000         0.000
  Remaining Buildup ........      1366.923         0.000         0.000         0.000         0.000
  Continuity Error (%) .....         0.049         0.000         0.000         0.000         0.000
  
  
  **************************        Volume        Volume
  Flow Routing Continuity        hectare-m      10^6 ltr
  **************************     ---------     ---------
  Dry Weather Inflow .......         0.000         0.000
  Wet Weather Inflow .......         0.484         4.842
  Groundwater Inflow .......         0.000         0.000
  RDII Inflow ..............         0.000         0.000
  External Inflow ..........         0.082         0.822
  External Outflow .........         0.332         3.320
  Flooding Loss ............         0.168         1.684
  Evaporation Loss .........         0.000         0.000
  Exfiltration Loss ........         0.000         0.000
  Initial Stored Volume ....         0.000         0.000
  Final Stored Volume ......         0.062         0.623
  Continuity Error (%) .....         0.661
  
  
  **************************           COD         NH3-N            TN            TP            SS
  Quality Routing Continuity            kg            kg            kg            kg            kg
  **************************    ----------    ----------    ----------    ----------    ----------
  Dry Weather Inflow .......         0.000         0.000         0.000         0.000         0.000
  Wet Weather Inflow .......       984.535         0.000         0.000         0.000         0.000
  Groundwater Inflow .......         0.000         0.000         0.000         0.000         0.000
  RDII Inflow ..............         0.000         0.000         0.000         0.000         0.000
  External Inflow ..........       137.264         0.000         0.000         0.000         0.000
  External Outflow .........       648.986         0.000         0.000         0.000         0.000
  Flooding Loss ............       363.553         0.000         0.000         0.000         0.000
  Exfiltration Loss ........         0.000         0.000         0.000         0.000         0.000
  Mass Reacted .............         0.000         0.000         0.000         0.000         0.000
  Initial Stored Mass ......         0.000         0.000         0.000         0.000         0.000
  Final Stored Mass ........       101.358         0.000         0.000         0.000         0.000
  Continuity Error (%) .....         0.704         0.000         0.000         0.000         0.000
  
  
  *************************
  Highest Continuity Errors
  *************************
  Node WS02006230 (6.08%)
  Node WS02006229 (3.86%)
  Node WS02006231 (3.46%)
  Node WS02006115 (2.39%)
  Node WS02006242 (2.31%)
  
  
  ***************************
  Time-Step Critical Elements
  ***************************
  Link 8 (89.52%)
  Link WSL2448 (8.49%)
  
  
  ********************************
  Highest Flow Instability Indexes
  ********************************
  Link WSL2302 (3)
  Link WSL2301 (2)
  Link WSL2297 (2)
  Link WSL2296 (2)
  Link WSL2298 (1)
  
  
  *************************
  Routing Time Step Summary
  *************************
  Minimum Time Step           :     0.50 sec
  Average Time Step           :     0.93 sec
  Maximum Time Step           :     5.00 sec
  Percent in Steady State     :     0.00
  Average Iterations per Step :     2.08
  Percent Not Converging      :     0.48
  
  
  ***************************
  Subcatchment Runoff Summary
  ***************************
  
  ------------------------------------------------------------------------------------------------------------------------------
                            Total      Total      Total      Total     Imperv       Perv      Total       Total     Peak  Runoff
                           Precip      Runon       Evap      Infil     Runoff     Runoff     Runoff      Runoff   Runoff   Coeff
  Subcatchment                 mm         mm         mm         mm         mm         mm         mm    10^6 ltr      MLD
  ------------------------------------------------------------------------------------------------------------------------------
  1                         28.07      42.56       0.00      11.75      16.91      22.89      39.80        0.48     7.49   0.563
  2                         28.07       0.00       0.00       9.18       6.80       4.40      11.21        0.38     6.62   0.399
  3                         28.07       0.00       0.00       9.27       6.74       3.78      10.52        0.54     9.41   0.375
  35                        28.07       0.00       0.00       9.15       6.82       4.58      11.39        0.35     6.05   0.406
  36                        28.07      23.34       0.00      11.42      12.03       9.25      21.28        1.26    18.45   0.414
  40                        28.07       6.04       0.00       9.84       8.17       5.73      13.89        0.54     8.91   0.407
  41                        28.07       0.00       0.00       9.03       6.86       5.33      12.20        0.24     4.15   0.434
  42                        28.07       0.00       0.00       9.08       6.85       5.05      11.90        0.27     4.76   0.424
  43                        28.07       0.00       0.00       8.43       6.96       8.55      15.51        0.06     1.02   0.553
  44                        28.07     352.53       0.00      18.28      93.44     222.85     316.28        1.17    19.01   0.831
  45                        28.07       0.00       0.00       8.83       6.91       6.50      13.42        0.14     2.44   0.478
  46                        28.07      19.67       0.00      10.76      11.44      11.64      23.08        0.49     7.36   0.484
  47                        28.07       0.00       0.00       8.86       6.91       6.36      13.27        0.15     2.60   0.473
  48                        28.07       9.30       0.00       9.83       9.06       8.92      17.98        0.28     4.54   0.481
  55                        28.07      13.95       0.00       9.92      10.25      12.71      22.96        0.19     3.01   0.546
  56                        28.07      21.51       0.00      10.89      11.88      12.31      24.19        0.52     7.70   0.488
  57                        28.07       0.00       0.00       9.27       6.75       3.80      10.55        0.53     9.25   0.376
  59                        28.07       0.00       0.00       8.76       6.92       6.90      13.82        0.12     2.06   0.492
  60                        28.07      30.19       0.00      10.69      14.23      22.39      36.62        0.19     3.01   0.628
  61                        28.07       0.00       0.00       9.49       6.46       2.26       8.72        1.57    27.39   0.310
  64                        28.07       0.00       0.00       8.88       6.90       6.21      13.12        0.16     2.77   0.467
  
  
  ****************************
  Subcatchment Washoff Summary
  ****************************
  
  ------------------------------------------------------------------------------------------
                                 COD         NH3-N            TN            TP            SS
  Subcatchment                    kg            kg            kg            kg            kg
  ------------------------------------------------------------------------------------------
  1                           90.186         0.000         0.000         0.000         0.000
  2                            0.000         0.000         0.000         0.000         0.000
  3                            0.000         0.000         0.000         0.000         0.000
  35                          79.954         0.000         0.000         0.000         0.000
  36                         410.495         0.000         0.000         0.000         0.000
  40                         149.170         0.000         0.000         0.000         0.000
  41                          55.502         0.000         0.000         0.000         0.000
  42                          63.378         0.000         0.000         0.000         0.000
  43                          13.209         0.000         0.000         0.000         0.000
  44                         388.521         0.000         0.000         0.000         0.000
  45                          32.760         0.000         0.000         0.000         0.000
  46                         150.250         0.000         0.000         0.000         0.000
  47                          34.889         0.000         0.000         0.000         0.000
  48                          79.930         0.000         0.000         0.000         0.000
  55                          52.477         0.000         0.000         0.000         0.000
  56                         152.483         0.000         0.000         0.000         0.000
  57                         120.018         0.000         0.000         0.000         0.000
  59                          27.565         0.000         0.000         0.000         0.000
  60                          49.469         0.000         0.000         0.000         0.000
  61                         334.780         0.000         0.000         0.000         0.000
  64                          37.247         0.000         0.000         0.000         0.000
  ------------------------------------------------------------------------------------------
  System                    2322.284         0.000         0.000         0.000         0.000
  
  
  ******************
  Node Depth Summary
  ******************
  
  ---------------------------------------------------------------------------------
                                 Average  Maximum  Maximum  Time of Max    Reported
                                   Depth    Depth      HGL   Occurrence   Max Depth
  Node                 Type       Meters   Meters   Meters  days hr:min      Meters
  ---------------------------------------------------------------------------------
  WS01000070           JUNCTION     0.00     0.00     0.00     0  00:00        0.00
  WS01000323           JUNCTION     0.00     0.00     0.00     0  00:00        0.00
  WS01000533           JUNCTION     0.00     0.00     6.86     0  00:00        0.00
  WS01005172           JUNCTION     0.00     0.00     0.00     0  00:00        0.00
  WS01005181           JUNCTION     0.00     0.00     0.00     0  00:00        0.00
  WS01009841           JUNCTION     0.00     0.00     0.00     0  00:00        0.00
  WS02000078           JUNCTION     0.00     0.00     0.00     0  00:00        0.00
  WS02000112           JUNCTION     0.00     0.00     0.00     0  00:00        0.00
  WS02000136           JUNCTION     0.00     0.00     0.00     0  00:00        0.00
  WS02004053           JUNCTION     0.00     0.00     0.00     0  00:00        0.00
  WS02004401           JUNCTION     2.19     2.35     8.35     0  02:36        2.35
  WS02005192           JUNCTION     0.44     0.52     8.39     0  01:52        0.51
  WS02005193           JUNCTION     0.48     0.56     8.38     0  02:28        0.56
  WS02005196           JUNCTION     0.46     0.53     8.38     0  01:52        0.53
  WS02006109           JUNCTION     1.61     1.77     8.39     0  02:37        1.77
  WS02006110           JUNCTION     1.62     1.79     8.39     0  02:36        1.79
  WS02006111           JUNCTION     1.63     1.79     8.37     0  02:35        1.79
  WS02006112           JUNCTION     2.08     2.25     8.37     0  02:36        2.25
  WS02006113           JUNCTION     1.63     1.80     8.39     0  02:35        1.80
  WS02006115           JUNCTION     2.09     2.26     8.36     0  02:36        2.26
  WS02006116           JUNCTION     2.15     2.32     8.36     0  02:36        2.32
  WS02006183           JUNCTION     0.00     0.00     0.00     0  00:00        0.00
  WS02006228           JUNCTION     1.58     1.75     8.40     0  02:38        1.75
  WS02006229           JUNCTION     1.54     1.71     8.40     0  02:38        1.71
  WS02006230           JUNCTION     1.48     1.65     8.40     0  02:38        1.65
  WS02006231           JUNCTION     1.34     1.50     8.40     0  02:38        1.50
  WS02006232           JUNCTION     1.22     1.37     8.40     0  02:38        1.37
  WS02006234           JUNCTION     1.10     1.23     8.39     0  02:38        1.23
  WS02006235           JUNCTION     1.09     1.22     8.39     0  02:38        1.22
  WS02006238           JUNCTION     1.08     1.21     8.39     0  02:37        1.21
  WS02006239           JUNCTION     1.05     1.18     8.39     0  02:37        1.18
  WS02006242           JUNCTION     0.96     1.08     8.38     0  02:37        1.08
  WS02006240           JUNCTION     0.97     1.09     8.38     0  02:37        1.09
  WS02006243           JUNCTION     0.85     0.96     8.38     0  02:37        0.96
  WS02006245           JUNCTION     0.78     0.88     8.37     0  02:36        0.88
  WS02006247           JUNCTION     0.76     0.86     8.37     0  02:36        0.86
  WS02006248           JUNCTION     0.68     0.77     8.36     0  02:33        0.77
  WS02006249           JUNCTION     0.68     0.76     8.36     0  02:32        0.76
  WS02006251           JUNCTION     0.61     0.70     8.37     0  02:29        0.70
  WS02006253           JUNCTION     0.49     0.57     8.37     0  02:29        0.57
  WS02618401           JUNCTION     0.00     0.00     0.00     0  00:00        0.00
  WSA1649              JUNCTION     0.00     0.00     0.00     0  00:00        0.00
  outfall-5            OUTFALL      0.13     0.17     7.84     0  02:33        0.17
  outfall-14           OUTFALL      0.12     0.15     7.81     0  02:36        0.15
  outfall-16           OUTFALL      0.00     0.00     8.39     0  00:00        0.00
  CC-storage           STORAGE      5.37     5.63     8.81     0  01:31        5.63
  
  
  *******************
  Node Inflow Summary
  *******************
  
  -------------------------------------------------------------------------------------------------
                                  Maximum  Maximum                  Lateral       Total        Flow
                                  Lateral    Total  Time of Max      Inflow      Inflow     Balance
                                   Inflow   Inflow   Occurrence      Volume      Volume       Error
  Node                 Type           MLD      MLD  days hr:min    10^6 ltr    10^6 ltr     Percent
  -------------------------------------------------------------------------------------------------
  WS01000070           JUNCTION      0.00     0.00     0  00:00           0           0       0.000 ltr
  WS01000323           JUNCTION      0.00     0.00     0  00:00           0           0       0.000 ltr
  WS01000533           JUNCTION      0.00     0.00     0  00:00           0           0       0.000 ltr
  WS01005172           JUNCTION      0.00     0.00     0  00:00           0           0       0.000 ltr
  WS01005181           JUNCTION      0.00     0.00     0  00:00           0           0       0.000 ltr
  WS01009841           JUNCTION      0.00     0.00     0  00:00           0           0       0.000 ltr
  WS02000078           JUNCTION      0.00     0.00     0  00:00           0           0       0.000 ltr
  WS02000112           JUNCTION      0.00     0.00     0  00:00           0           0       0.000 ltr
  WS02000136           JUNCTION      0.00     0.00     0  00:00           0           0       0.000 ltr
  WS02004053           JUNCTION      0.00     0.00     0  00:00           0           0       0.000 ltr
  WS02004401           JUNCTION      0.05    24.27     0  02:36      0.0086        1.54       1.882
  WS02005192           JUNCTION      9.35     9.35     0  02:22       0.544       0.544       0.477
  WS02005193           JUNCTION      0.09     9.53     0  02:22       0.014        0.57       1.298
  WS02005196           JUNCTION      0.12     9.46     0  02:21      0.0183        0.56       1.210
  WS02006109           JUNCTION      0.08    15.55     0  03:00      0.0129        1.11       2.216
  WS02006110           JUNCTION      0.08    15.62     0  03:00      0.0126         1.1       2.260
  WS02006111           JUNCTION      0.24    23.77     0  02:36      0.0352        1.58       1.312
  WS02006112           JUNCTION      0.18    23.93     0  02:36      0.0263        1.58       2.081
  WS02006113           JUNCTION      9.56    23.56     0  02:36       0.561         1.6       1.492
  WS02006115           JUNCTION      0.08    24.01     0  02:36      0.0129        1.57       2.449
  WS02006116           JUNCTION      0.24    24.21     0  02:36      0.0347        1.57       2.227
  WS02006183           JUNCTION      0.00     0.00     0  00:00           0           0       0.000 ltr
  WS02006228           JUNCTION     19.17    19.17     0  03:01        1.19        1.35       1.344
  WS02006229           JUNCTION      0.13     7.07     0  01:49      0.0193       0.411       4.010
  WS02006230           JUNCTION      0.07     7.13     0  01:49      0.0111       0.423       6.471
  WS02006231           JUNCTION      0.13     6.20     0  01:48      0.0197        0.43       3.586
  WS02006232           JUNCTION      6.70     9.25     0  02:42        0.39       0.796       1.950
  WS02006234           JUNCTION      0.14     9.37     0  02:42      0.0208       0.786       1.775
  WS02006235           JUNCTION      0.14     9.50     0  02:43      0.0215       0.784       0.999
  WS02006238           JUNCTION      0.15     9.64     0  02:42      0.0226       0.786       1.288
  WS02006239           JUNCTION      0.11     9.74     0  02:42      0.0167       0.786       1.974
  WS02006242           JUNCTION      0.08     9.87     0  02:42      0.0124        0.79       2.361
  WS02006240           JUNCTION      0.06     9.80     0  02:42     0.00952       0.784       2.127
  WS02006243           JUNCTION      0.17    10.03     0  02:42      0.0259       0.801       2.182
  WS02006245           JUNCTION      0.07    10.09     0  02:42      0.0109       0.792       1.688
  WS02006247           JUNCTION      7.62    17.49     0  03:00       0.504        1.26       0.903
  WS02006248           JUNCTION      0.12    28.97     0  02:33      0.0185        1.94       0.554
  WS02006249           JUNCTION      0.19    12.81     0  02:23      0.0275       0.811       1.816
  WS02006251           JUNCTION      3.07    12.66     0  02:23         0.2       0.787       1.876
  WS02006253           JUNCTION      0.11     9.62     0  02:22      0.0166       0.587       1.280
  WS02618401           JUNCTION      0.00     0.00     0  00:00           0           0       0.000 ltr
  WSA1649              JUNCTION      0.00     0.00     0  00:00           0           0       0.000 ltr
  outfall-5            OUTFALL       0.00    28.97     0  02:33           0        1.82       0.000
  outfall-14           OUTFALL       0.00    24.27     0  02:36           0         1.5       0.000
  outfall-16           OUTFALL       0.00     0.00     0  00:00           0           0       0.000 ltr
  CC-storage           STORAGE      29.01    29.01     0  02:25        1.84        1.84       0.000
  
  
  **********************
  Node Surcharge Summary
  **********************
  
  Surcharging occurs when water rises above the top of the highest conduit.
  ---------------------------------------------------------------------
                                               Max. Height   Min. Depth
                                   Hours       Above Crown    Below Rim
  Node                 Type      Surcharged         Meters       Meters
  ---------------------------------------------------------------------
  WS01000070           JUNCTION        3.83          0.000        0.000
  WS01000323           JUNCTION        3.83          0.000        0.000
  WS01000533           JUNCTION        3.83          0.000        2.147
  WS01005172           JUNCTION        3.83          0.000        0.000
  WS01005181           JUNCTION        3.83          0.000        0.000
  WS01009841           JUNCTION        3.83          0.000        0.000
  WS02000078           JUNCTION        3.83          0.000        0.000
  WS02000112           JUNCTION        3.83          0.000        0.000
  WS02000136           JUNCTION        3.83          0.000        0.000
  WS02004053           JUNCTION        3.83          0.000        0.000
  WS02006109           JUNCTION        2.28          0.975        0.863
  WS02006110           JUNCTION        2.28          0.990        0.855
  WS02006111           JUNCTION        2.30          0.993        0.884
  WS02006112           JUNCTION        2.46          1.245        0.438
  WS02006113           JUNCTION        2.29          0.995        0.938
  WS02006115           JUNCTION        2.48          1.261        1.038
  WS02006116           JUNCTION        2.55          1.318        1.032
  WS02006183           JUNCTION        3.83          0.000        0.000
  WS02006228           JUNCTION        2.26          0.949        1.282
  WS02006229           JUNCTION        2.25          0.909        1.545
  WS02006231           JUNCTION        2.20          0.798        0.745
  WS02006232           JUNCTION        2.15          0.668        0.821
  WS02006234           JUNCTION        2.10          0.534        0.723
  WS02006235           JUNCTION        2.10          0.522        0.772
  WS02006238           JUNCTION        2.10          0.511        0.923
  WS02006239           JUNCTION        2.08          0.478        0.851
  WS02006242           JUNCTION        2.05          0.381        0.468
  WS02006240           JUNCTION        2.06          0.395        1.008
  WS02006243           JUNCTION        2.02          0.256        0.524
  WS02006245           JUNCTION        2.00          0.183        0.672
  WS02006247           JUNCTION        1.99          0.160        0.600
  WS02006249           JUNCTION        1.94          0.065        0.323
  WS02006251           JUNCTION        0.30          0.002        1.508
  WS02618401           JUNCTION        3.83          0.000        0.000
  WSA1649              JUNCTION        3.83          0.000        0.000
  
  
  *********************
  Node Flooding Summary
  *********************
  
  Flooding refers to all water that overflows a node, whether it ponds or not.
  --------------------------------------------------------------------------
                                                             Total   Maximum
                                 Maximum   Time of Max       Flood    Ponded
                        Hours       Rate    Occurrence      Volume     Depth
  Node                 Flooded       MLD   days hr:min    10^6 ltr    Meters
  --------------------------------------------------------------------------
  CC-storage              2.31     29.01      0  02:25       1.684     0.000
  
  
  **********************
  Storage Volume Summary
  **********************
  
  --------------------------------------------------------------------------------------------------
                         Average     Avg  Evap Exfil       Maximum     Max    Time of Max    Maximum
                          Volume    Pcnt  Pcnt  Pcnt        Volume    Pcnt     Occurrence    Outflow
  Storage Unit           1000 m3    Full  Loss  Loss       1000 m3    Full    days hr:min        MLD
  --------------------------------------------------------------------------------------------------
  CC-storage               0.152      95     0     0         0.159     100       0  01:31       0.00
  
  
  ***********************
  Outfall Loading Summary
  ***********************
  
  ---------------------------------------------------------------------------------------------------------------------------------
                         Flow       Avg       Max       Total         Total         Total         Total         Total         Total
                         Freq      Flow      Flow      Volume           COD         NH3-N            TN            TP            SS
  Outfall Node           Pcnt       MLD       MLD    10^6 ltr            kg            kg            kg            kg            kg
  ---------------------------------------------------------------------------------------------------------------------------------
  outfall-5             89.75     22.34     28.97       1.816       342.562         0.000         0.000         0.000         0.000
  outfall-14            89.77     18.53     24.27       1.504       306.442         0.000         0.000         0.000         0.000
  outfall-16             0.00      0.00      0.00       0.000         0.000         0.000         0.000         0.000         0.000
  ---------------------------------------------------------------------------------------------------------------------------------
  System                59.84     40.87     53.22       3.320       649.005         0.000         0.000         0.000         0.000
  
  
  ********************
  Link Flow Summary
  ********************
  
  -----------------------------------------------------------------------------
                                 Maximum  Time of Max   Maximum    Max/    Max/
                                  |Flow|   Occurrence   |Veloc|    Full    Full
  Link                 Type          MLD  days hr:min     m/sec    Flow   Depth
  -----------------------------------------------------------------------------
  WSL2038              CONDUIT      9.35     0  02:21      0.63    0.47    0.87
  WSL2039              CONDUIT      9.52     0  02:22      0.94    0.49    0.94
  WSL2041              CONDUIT      9.44     0  02:22      0.70    0.46    0.91
  WSL2294              CONDUIT     15.55     0  03:00      0.43    0.52    1.00
  WSL2295              CONDUIT     15.62     0  03:00      0.50    0.70    1.00
  WSL2296              CONDUIT     23.77     0  02:36      0.63    0.13    1.00
  WSL2297              CONDUIT     23.93     0  02:36      0.35    0.46    1.00
  WSL2298              CONDUIT     23.56     0  02:36      0.87    1.08    1.00
  WSL2301              CONDUIT     24.01     0  02:36      0.35    0.22    1.00
  WSL2302              CONDUIT     24.21     0  02:36      0.36    0.30    1.00
  WSL2441              CONDUIT     15.48     0  03:00      0.44    0.40    1.00
  WSL2442              CONDUIT      7.06     0  01:49      0.63    0.18    1.00
  WSL2443              CONDUIT      6.07     0  01:48      0.73    0.09    1.00
  WSL2444              CONDUIT      6.23     0  01:48      0.92    0.10    1.00
  WSL2446              CONDUIT      9.25     0  02:42      0.88    0.16    1.00
  WSL2447              CONDUIT      9.37     0  02:43      0.80    0.48    1.00
  WSL2448              CONDUIT      9.50     0  02:42      0.66    0.27    1.00
  WSL2449              CONDUIT      9.64     0  02:42      0.64    0.34    1.00
  WSL2450              CONDUIT      9.74     0  02:42      0.73    0.20    1.00
  WSL2451              CONDUIT      9.80     0  02:42      0.72    0.64    1.00
  WSL2452              CONDUIT      9.87     0  02:42      0.75    0.19    1.00
  WSL2454              CONDUIT     10.03     0  02:42      0.91    0.23    1.00
  WSL2478              CONDUIT     10.09     0  02:42      0.79    0.36    1.00
  WSL2479              CONDUIT     17.49     0  03:00      0.69    0.33    1.00
  WSL2480              CONDUIT     12.81     0  02:23      0.77    0.59    1.00
  WSL2482              CONDUIT     12.65     0  02:23      0.69    0.33    1.00
  WSL2484              CONDUIT      9.61     0  02:22      0.78    0.14    0.91
  WSL2493              CONDUIT      6.94     0  01:49      0.51    0.12    1.00
  8                    CONDUIT     28.97     0  02:33      6.51    0.38    0.43
  19                   CONDUIT      0.00     0  00:00      0.00    0.00    0.00
  17                   CONDUIT     24.27     0  02:36      6.28    0.31    0.39
  CC-Pump-1            PUMP         0.00     0  00:00              0.00
  CC-Pump-2            PUMP         0.00     0  00:00              0.00
  
  
  ***************************
  Flow Classification Summary
  ***************************
  
  -------------------------------------------------------------------------------------
                      Adjusted    ---------- Fraction of Time in Flow Class ---------- 
                       /Actual         Up    Down  Sub   Sup   Up    Down  Norm  Inlet 
  Conduit               Length    Dry  Dry   Dry   Crit  Crit  Crit  Crit  Ltd   Ctrl  
  -------------------------------------------------------------------------------------
  WSL2038                 1.00   0.00  0.00  0.00  1.00  0.00  0.00  0.00  0.01  0.00
  WSL2039                 1.00   0.00  0.00  0.00  0.98  0.02  0.00  0.00  0.00  0.00
  WSL2041                 1.00   0.00  0.00  0.00  1.00  0.00  0.00  0.00  0.29  0.00
  WSL2294                 1.00   0.00  0.00  0.00  1.00  0.00  0.00  0.00  0.00  0.00
  WSL2295                 1.00   0.00  0.00  0.00  1.00  0.00  0.00  0.00  0.00  0.00
  WSL2296                 1.00   0.00  0.00  0.00  1.00  0.00  0.00  0.00  0.17  0.00
  WSL2297                 1.00   0.00  0.00  0.00  1.00  0.00  0.00  0.00  0.00  0.00
  WSL2298                 1.00   0.00  0.00  0.00  0.98  0.02  0.00  0.00  0.00  0.00
  WSL2301                 1.00   0.00  0.00  0.00  1.00  0.00  0.00  0.00  0.04  0.00
  WSL2302                 1.00   0.00  0.00  0.00  1.00  0.00  0.00  0.00  0.01  0.00
  WSL2441                 1.00   0.00  0.00  0.00  1.00  0.00  0.00  0.00  0.00  0.00
  WSL2442                 1.00   0.00  0.00  0.00  1.00  0.00  0.00  0.00  0.17  0.00
  WSL2443                 1.00   0.00  0.00  0.00  1.00  0.00  0.00  0.00  0.30  0.00
  WSL2444                 1.00   0.00  0.00  0.00  0.94  0.06  0.00  0.00  0.23  0.00
  WSL2446                 1.00   0.00  0.00  0.00  0.95  0.05  0.00  0.00  0.02  0.00
  WSL2447                 1.00   0.00  0.00  0.00  1.00  0.00  0.00  0.00  0.00  0.00
  WSL2448                 1.00   0.00  0.00  0.00  1.00  0.00  0.00  0.00  0.00  0.00
  WSL2449                 1.00   0.00  0.00  0.00  1.00  0.00  0.00  0.00  0.03  0.00
  WSL2450                 1.00   0.00  0.00  0.00  1.00  0.00  0.00  0.00  0.39  0.00
  WSL2451                 1.00   0.00  0.00  0.00  1.00  0.00  0.00  0.00  0.00  0.00
  WSL2452                 1.00   0.00  0.00  0.00  1.00  0.00  0.00  0.00  0.41  0.00
  WSL2454                 1.00   0.00  0.00  0.00  1.00  0.00  0.00  0.00  0.02  0.00
  WSL2478                 1.00   0.00  0.00  0.00  1.00  0.00  0.00  0.00  0.00  0.00
  WSL2479                 1.00   0.00  0.00  0.00  1.00  0.00  0.00  0.00  0.43  0.00
  WSL2480                 1.00   0.00  0.00  0.00  1.00  0.00  0.00  0.00  0.00  0.00
  WSL2482                 1.00   0.00  0.00  0.00  1.00  0.00  0.00  0.00  0.41  0.00
  WSL2484                 1.00   0.00  0.00  0.00  1.00  0.00  0.00  0.00  0.45  0.00
  WSL2493                 1.00   0.00  0.00  0.00  1.00  0.00  0.00  0.00  0.05  0.00
  8                       1.00   0.10  0.00  0.00  0.00  0.90  0.00  0.00  0.01  0.00
  19                      1.00   1.00  0.00  0.00  0.00  0.00  0.00  0.00  0.00  0.00
  17                      1.00   0.10  0.00  0.00  0.00  0.90  0.00  0.00  0.00  0.00
  
  
  *************************
  Conduit Surcharge Summary
  *************************
  
  ----------------------------------------------------------------------------
                                                           Hours        Hours 
                         --------- Hours Full --------   Above Full   Capacity
  Conduit                Both Ends  Upstream  Dnstream   Normal Flow   Limited
  ----------------------------------------------------------------------------
  WSL2294                     2.28      2.28      2.28      0.01         0.01
  WSL2295                     2.28      2.28      2.29      0.01         0.01
  WSL2296                     2.30      2.30      2.74      0.01         0.01
  WSL2297                     2.46      2.46      2.48      0.01         0.01
  WSL2298                     2.29      2.29      2.30      0.71         0.74
  WSL2301                     2.48      2.48      2.55      0.01         0.01
  WSL2302                     2.55      2.55      2.61      0.01         0.01
  WSL2441                     2.26      2.26      2.28      0.01         0.01
  WSL2442                     2.26      2.26      2.29      0.01         0.01
  WSL2443                     2.20      2.20      2.26      0.01         0.01
  WSL2444                     2.15      2.15      2.20      0.01         0.01
  WSL2446                     2.10      2.10      2.15      0.01         0.01
  WSL2447                     2.10      2.10      2.10      0.01         0.01
  WSL2448                     2.10      2.10      2.10      0.01         0.01
  WSL2449                     2.08      2.08      2.10      0.01         0.01
  WSL2450                     2.06      2.06      2.08      0.01         0.01
  WSL2451                     2.05      2.05      2.06      0.01         0.01
  WSL2452                     2.02      2.02      2.05      0.01         0.01
  WSL2454                     2.00      2.00      2.02      0.01         0.01
  WSL2478                     1.99      1.99      2.00      0.01         0.01
  WSL2479                     1.97      1.97      1.99      0.01         0.01
  WSL2480                     1.94      1.94      1.97      0.01         0.01
  WSL2482                     0.29      0.29      1.94      0.01         0.01
  WSL2484                     0.01      0.01      0.29      0.01         0.01
  WSL2493                     2.25      2.25      2.26      0.01         0.01
  
  
  ***************
  Pumping Summary
  ***************
  
  ---------------------------------------------------------------------------------------------------------
                                                  Min       Avg       Max     Total     Power    % Time Off
                        Percent   Number of      Flow      Flow      Flow    Volume     Usage    Pump Curve
  Pump                 Utilized   Start-Ups       MLD       MLD       MLD  10^6 ltr     Kw-hr    Low   High
  ---------------------------------------------------------------------------------------------------------
  CC-Pump-1                0.00           0      0.00      0.00      0.00     0.000      0.00    0.0    0.0
  CC-Pump-2                0.00           0      0.00      0.00      0.00     0.000      0.00    0.0    0.0
  
  
  ***************************
  Link Pollutant Load Summary
  ***************************
  
  ------------------------------------------------------------------------------------------
                                 COD         NH3-N            TN            TP            SS
  Link                            kg            kg            kg            kg            kg
  ------------------------------------------------------------------------------------------
  WSL2038                    122.942         0.000         0.000         0.000         0.000
  WSL2039                    128.549         0.000         0.000         0.000         0.000
  WSL2041                    125.762         0.000         0.000         0.000         0.000
  WSL2294                    325.636         0.000         0.000         0.000         0.000
  WSL2295                    317.752         0.000         0.000         0.000         0.000
  WSL2296                    318.080         0.000         0.000         0.000         0.000
  WSL2297                    315.871         0.000         0.000         0.000         0.000
  WSL2298                    315.041         0.000         0.000         0.000         0.000
  WSL2301                    312.840         0.000         0.000         0.000         0.000
  WSL2302                    311.763         0.000         0.000         0.000         0.000
  WSL2441                    332.875         0.000         0.000         0.000         0.000
  WSL2442                    104.141         0.000         0.000         0.000         0.000
  WSL2443                    101.267         0.000         0.000         0.000         0.000
  WSL2444                     99.995         0.000         0.000         0.000         0.000
  WSL2446                     99.231         0.000         0.000         0.000         0.000
  WSL2447                     98.696         0.000         0.000         0.000         0.000
  WSL2448                     98.697         0.000         0.000         0.000         0.000
  WSL2449                     97.940         0.000         0.000         0.000         0.000
  WSL2450                     97.068         0.000         0.000         0.000         0.000
  WSL2451                     96.170         0.000         0.000         0.000         0.000
  WSL2452                     95.759         0.000         0.000         0.000         0.000
  WSL2454                     95.136         0.000         0.000         0.000         0.000
  WSL2478                     94.477         0.000         0.000         0.000         0.000
  WSL2479                    182.685         0.000         0.000         0.000         0.000
  WSL2480                    189.206         0.000         0.000         0.000         0.000
  WSL2482                    185.215         0.000         0.000         0.000         0.000
  WSL2484                    132.302         0.000         0.000         0.000         0.000
  WSL2493                    104.297         0.000         0.000         0.000         0.000
  8                          342.562         0.000         0.000         0.000         0.000
  19                           0.000         0.000         0.000         0.000         0.000
  17                         306.442         0.000         0.000         0.000         0.000
  CC-Pump-1                    0.000         0.000         0.000         0.000         0.000
  CC-Pump-2                    0.000         0.000         0.000         0.000         0.000
  

  Analysis begun on:  Fri Aug 23 09:51:34 2019
  Analysis ended on:  Fri Aug 23 09:51:34 2019
  Total elapsed time: < 1 sec