
  EPA STORM WATER MANAGEMENT MODEL - VERSION 5.1 (Build 5.2.0.dev5)
  --------------------------------------------------------------

  
  *********************************************************
  NOTE: The summary statistics displayed in this report are
  based on results found at every computational time step,  
  not just on results from each reporting time step.
  *********************************************************
  
  ****************
  Analysis Options
  ****************
  Flow Units ............... MLD
  Process Models:
    Rainfall/Runoff ........ YES
    RDII ................... NO
    Snowmelt ............... NO
    Groundwater ............ NO
    Flow Routing ........... YES
    Ponding Allowed ........ NO
    Water Quality .......... YES
  Infiltration Method ...... GREEN_AMPT
  Flow Routing Method ...... DYNWAVE
  Surcharge Method ......... EXTRAN
  Starting Date ............ 08/28/2015 08:00:00
  Ending Date .............. 08/28/2015 11:50:00
  Antecedent Dry Days ...... 4.0
  Report Time Step ......... 00:01:00
  Wet Time Step ............ 00:01:00
  Dry Time Step ............ 00:01:00
  Routing Time Step ........ 5.00 sec
  Variable Time Step ....... YES
  Maximum Trials ........... 8
  Number of Threads ........ 1
  Head Tolerance ........... 0.001500 m
  
  
  **************************        Volume         Depth
  Runoff Quantity Continuity     hectare-m            mm
  **************************     ---------       -------
  Total Precipitation ......         1.151        18.605
  Evaporation Loss .........         0.000         0.000
  Infiltration Loss ........         0.479         7.742
  Surface Runoff ...........         0.246         3.971
  Final Storage ............         0.426         6.893
  Continuity Error (%) .....        -0.007
  
  
  **************************           COD         NH3-N            TN            TP            SS
  Runoff Quality Continuity             kg            kg            kg            kg            kg
  **************************    ----------    ----------    ----------    ----------    ----------
  Initial Buildup ..........      2504.640         0.000         0.000         0.000         0.000
  Surface Buildup ..........        19.800         0.000         0.000         0.000         0.000
  Wet Deposition ...........         0.000         0.000         0.000         0.000         0.000
  Sweeping Removal .........         0.000         0.000         0.000         0.000         0.000
  Infiltration Loss ........        86.101         0.000         0.000         0.000         0.000
  BMP Removal ..............         0.000         0.000         0.000         0.000         0.000
  Surface Runoff ...........       403.534         0.000         0.000         0.000         0.000
  Remaining Buildup ........      2032.862         0.000         0.000         0.000         0.000
  Continuity Error (%) .....         0.077         0.000         0.000         0.000         0.000
  
  
  **************************        Volume        Volume
  Flow Routing Continuity        hectare-m      10^6 ltr
  **************************     ---------     ---------
  Dry Weather Inflow .......         0.000         0.000
  Wet Weather Inflow .......         0.245         2.450
  Groundwater Inflow .......         0.000         0.000
  RDII Inflow ..............         0.000         0.000
  External Inflow ..........         0.082         0.822
  External Outflow .........         0.163         1.629
  Flooding Loss ............         0.098         0.981
  Evaporation Loss .........         0.000         0.000
  Exfiltration Loss ........         0.000         0.000
  Initial Stored Volume ....         0.000         0.000
  Final Stored Volume ......         0.062         0.621
  Continuity Error (%) .....         1.233
  
  
  **************************           COD         NH3-N            TN            TP            SS
  Quality Routing Continuity            kg            kg            kg            kg            kg
  **************************    ----------    ----------    ----------    ----------    ----------
  Dry Weather Inflow .......         0.000         0.000         0.000         0.000         0.000
  Wet Weather Inflow .......       402.473         0.000         0.000         0.000         0.000
  Groundwater Inflow .......         0.000         0.000         0.000         0.000         0.000
  RDII Inflow ..............         0.000         0.000         0.000         0.000         0.000
  External Inflow ..........       137.269         0.000         0.000         0.000         0.000
  External Outflow .........       250.959         0.000         0.000         0.000         0.000
  Flooding Loss ............       156.116         0.000         0.000         0.000         0.000
  Exfiltration Loss ........         0.000         0.000         0.000         0.000         0.000
  Mass Reacted .............         0.000         0.000         0.000         0.000         0.000
  Initial Stored Mass ......         0.000         0.000         0.000         0.000         0.000
  Final Stored Mass ........       125.192         0.000         0.000         0.000         0.000
  Continuity Error (%) .....         1.385         0.000         0.000         0.000         0.000
  
  
  *************************
  Highest Continuity Errors
  *************************
  Node WS02006230 (8.66%)
  Node WS02006229 (5.70%)
  Node WS02006231 (5.01%)
  Node WS02006115 (4.72%)
  Node WS02006116 (4.35%)
  
  
  ***************************
  Time-Step Critical Elements
  ***************************
  Link 8 (85.02%)
  Link WSL2448 (12.32%)
  
  
  ********************************
  Highest Flow Instability Indexes
  ********************************
  Link WSL2302 (4)
  Link WSL2301 (3)
  Link WSL2297 (3)
  Link WSL2296 (2)
  Link WSL2298 (2)
  
  
  *************************
  Routing Time Step Summary
  *************************
  Minimum Time Step           :     0.18 sec
  Average Time Step           :     1.18 sec
  Maximum Time Step           :     5.00 sec
  Percent in Steady State     :     0.00
  Average Iterations per Step :     2.06
  Percent Not Converging      :     0.24
  
  
  ***************************
  Subcatchment Runoff Summary
  ***************************
  
  ------------------------------------------------------------------------------------------------------------------------------
                            Total      Total      Total      Total     Imperv       Perv      Total       Total     Peak  Runoff
                           Precip      Runon       Evap      Infil     Runoff     Runoff     Runoff      Runoff   Runoff   Coeff
  Subcatchment                 mm         mm         mm         mm         mm         mm         mm    10^6 ltr      MLD
  ------------------------------------------------------------------------------------------------------------------------------
  1                         18.60      20.01       0.00       9.05       9.11       8.07      17.18        0.21     4.86   0.445
  2                         18.60       0.00       0.00       7.38       4.41       1.59       6.00        0.20     5.42   0.322
  3                         18.60       0.00       0.00       7.42       4.34       1.34       5.68        0.29     7.62   0.305
  35                        18.60       0.00       0.00       7.37       4.42       1.66       6.08        0.18     4.97   0.327
  36                        18.60      11.77       0.00       8.75       6.92       3.11      10.03        0.59    14.01   0.330
  40                        18.60       3.20       0.00       7.79       5.11       2.04       7.14        0.28     7.21   0.328
  41                        18.60       0.00       0.00       7.33       4.48       1.99       6.46        0.13     3.45   0.347
  42                        18.60       0.00       0.00       7.34       4.46       1.86       6.32        0.14     3.94   0.340
  43                        18.60       0.00       0.00       7.07       4.59       3.58       8.17        0.03     0.88   0.439
  44                        18.60     166.97       0.00      14.20      45.20      93.52     138.72        0.51    10.92   0.747
  45                        18.60       0.00       0.00       7.25       4.53       2.52       7.06        0.07     2.06   0.379
  46                        18.60       9.97       0.00       8.42       6.74       4.18      10.92        0.23     5.83   0.382
  47                        18.60       0.00       0.00       7.26       4.53       2.46       6.98        0.08     2.19   0.375
  48                        18.60       4.89       0.00       7.87       5.62       3.34       8.96        0.14     3.74   0.381
  55                        18.60       7.33       0.00       7.99       6.26       4.97      11.23        0.09     2.48   0.433
  56                        18.60      10.96       0.00       8.50       6.96       4.41      11.38        0.24     6.02   0.385
  57                        18.60       0.00       0.00       7.42       4.35       1.35       5.69        0.28     7.50   0.306
  59                        18.60       0.00       0.00       7.22       4.55       2.71       7.26        0.06     1.74   0.390
  60                        18.60      15.89       0.00       8.61       8.35       9.19      17.54        0.09     2.34   0.509
  61                        18.60       0.00       0.00       7.50       4.04       0.76       4.81        0.87    21.56   0.258
  64                        18.60       0.00       0.00       7.27       4.52       2.39       6.91        0.08     2.33   0.371
  
  
  ****************************
  Subcatchment Washoff Summary
  ****************************
  
  ------------------------------------------------------------------------------------------
                                 COD         NH3-N            TN            TP            SS
  Subcatchment                    kg            kg            kg            kg            kg
  ------------------------------------------------------------------------------------------
  1                           32.311         0.000         0.000         0.000         0.000
  2                            0.000         0.000         0.000         0.000         0.000
  3                            0.000         0.000         0.000         0.000         0.000
  35                          33.068         0.000         0.000         0.000         0.000
  36                         187.604         0.000         0.000         0.000         0.000
  40                          62.035         0.000         0.000         0.000         0.000
  41                          23.491         0.000         0.000         0.000         0.000
  42                          26.582         0.000         0.000         0.000         0.000
  43                           6.500         0.000         0.000         0.000         0.000
  44                         164.104         0.000         0.000         0.000         0.000
  45                          14.498         0.000         0.000         0.000         0.000
  46                          73.815         0.000         0.000         0.000         0.000
  47                          15.347         0.000         0.000         0.000         0.000
  48                          37.044         0.000         0.000         0.000         0.000
  55                          27.722         0.000         0.000         0.000         0.000
  56                          78.952         0.000         0.000         0.000         0.000
  57                          48.671         0.000         0.000         0.000         0.000
  59                          12.415         0.000         0.000         0.000         0.000
  60                          29.340         0.000         0.000         0.000         0.000
  61                         130.725         0.000         0.000         0.000         0.000
  64                          16.285         0.000         0.000         0.000         0.000
  ------------------------------------------------------------------------------------------
  System                    1020.509         0.000         0.000         0.000         0.000
  
  
  ******************
  Node Depth Summary
  ******************
  
  ---------------------------------------------------------------------------------
                                 Average  Maximum  Maximum  Time of Max    Reported
                                   Depth    Depth      HGL   Occurrence   Max Depth
  Node                 Type       Meters   Meters   Meters  days hr:min      Meters
  ---------------------------------------------------------------------------------
  WS01000070           JUNCTION     0.00     0.00     0.00     0  00:00        0.00
  WS01000323           JUNCTION     0.00     0.00     0.00     0  00:00        0.00
  WS01000533           JUNCTION     0.00     0.00     6.86     0  00:00        0.00
  WS01005172           JUNCTION     0.00     0.00     0.00     0  00:00        0.00
  WS01005181           JUNCTION     0.00     0.00     0.00     0  00:00        0.00
  WS01009841           JUNCTION     0.00     0.00     0.00     0  00:00        0.00
  WS02000078           JUNCTION     0.00     0.00     0.00     0  00:00        0.00
  WS02000112           JUNCTION     0.00     0.00     0.00     0  00:00        0.00
  WS02000136           JUNCTION     0.00     0.00     0.00     0  00:00        0.00
  WS02004053           JUNCTION     0.00     0.00     0.00     0  00:00        0.00
  WS02004401           JUNCTION     2.11     2.33     8.33     0  03:01        2.33
  WS02005192           JUNCTION     0.38     0.49     8.36     0  03:01        0.49
  WS02005193           JUNCTION     0.42     0.53     8.35     0  03:01        0.53
  WS02005196           JUNCTION     0.40     0.51     8.36     0  03:01        0.51
  WS02006109           JUNCTION     1.51     1.74     8.36     0  03:00        1.74
  WS02006110           JUNCTION     1.53     1.76     8.36     0  03:00        1.76
  WS02006111           JUNCTION     1.54     1.77     8.35     0  03:00        1.77
  WS02006112           JUNCTION     1.99     2.22     8.34     0  03:00        2.22
  WS02006113           JUNCTION     1.54     1.77     8.36     0  03:00        1.77
  WS02006115           JUNCTION     2.01     2.24     8.34     0  03:00        2.24
  WS02006116           JUNCTION     2.07     2.30     8.34     0  03:00        2.30
  WS02006183           JUNCTION     0.00     0.00     0.00     0  00:00        0.00
  WS02006228           JUNCTION     1.48     1.71     8.36     0  03:00        1.71
  WS02006229           JUNCTION     1.44     1.67     8.36     0  03:00        1.67
  WS02006230           JUNCTION     1.39     1.61     8.36     0  03:01        1.61
  WS02006231           JUNCTION     1.25     1.46     8.36     0  03:01        1.46
  WS02006232           JUNCTION     1.13     1.33     8.36     0  03:01        1.33
  WS02006234           JUNCTION     1.01     1.20     8.36     0  03:01        1.20
  WS02006235           JUNCTION     1.00     1.19     8.36     0  03:01        1.19
  WS02006238           JUNCTION     0.99     1.18     8.36     0  03:01        1.18
  WS02006239           JUNCTION     0.97     1.15     8.36     0  03:01        1.15
  WS02006242           JUNCTION     0.89     1.05     8.35     0  03:01        1.05
  WS02006240           JUNCTION     0.89     1.07     8.36     0  03:01        1.07
  WS02006243           JUNCTION     0.77     0.93     8.35     0  03:01        0.93
  WS02006245           JUNCTION     0.71     0.86     8.35     0  03:01        0.86
  WS02006247           JUNCTION     0.70     0.84     8.35     0  03:01        0.84
  WS02006248           JUNCTION     0.62     0.75     8.34     0  03:01        0.75
  WS02006249           JUNCTION     0.61     0.74     8.34     0  03:01        0.74
  WS02006251           JUNCTION     0.55     0.68     8.35     0  03:01        0.68
  WS02006253           JUNCTION     0.44     0.55     8.35     0  03:01        0.55
  WS02618401           JUNCTION     0.00     0.00     0.00     0  00:00        0.00
  WSA1649              JUNCTION     0.00     0.00     0.00     0  00:00        0.00
  outfall-5            OUTFALL      0.09     0.15     7.82     0  03:01        0.15
  outfall-14           OUTFALL      0.08     0.13     7.79     0  03:01        0.13
  outfall-16           OUTFALL      0.00     0.00     8.39     0  00:00        0.00
  CC-storage           STORAGE      5.29     5.63     8.81     0  01:38        5.63
  
  
  *******************
  Node Inflow Summary
  *******************
  
  -------------------------------------------------------------------------------------------------
                                  Maximum  Maximum                  Lateral       Total        Flow
                                  Lateral    Total  Time of Max      Inflow      Inflow     Balance
                                   Inflow   Inflow   Occurrence      Volume      Volume       Error
  Node                 Type           MLD      MLD  days hr:min    10^6 ltr    10^6 ltr     Percent
  -------------------------------------------------------------------------------------------------
  WS01000070           JUNCTION      0.00     0.00     0  00:00           0           0       0.000 ltr
  WS01000323           JUNCTION      0.00     0.00     0  00:00           0           0       0.000 ltr
  WS01000533           JUNCTION      0.00     0.00     0  00:00           0           0       0.000 ltr
  WS01005172           JUNCTION      0.00     0.00     0  00:00           0           0       0.000 ltr
  WS01005181           JUNCTION      0.00     0.00     0  00:00           0           0       0.000 ltr
  WS01009841           JUNCTION      0.00     0.00     0  00:00           0           0       0.000 ltr
  WS02000078           JUNCTION      0.00     0.00     0  00:00           0           0       0.000 ltr
  WS02000112           JUNCTION      0.00     0.00     0  00:00           0           0       0.000 ltr
  WS02000136           JUNCTION      0.00     0.00     0  00:00           0           0       0.000 ltr
  WS02004053           JUNCTION      0.00     0.00     0  00:00           0           0       0.000 ltr
  WS02004401           JUNCTION      0.05    18.59     0  03:01      0.0086       0.768       3.803
  WS02005192           JUNCTION      7.59     7.59     0  03:01       0.301       0.301       0.810
  WS02005193           JUNCTION      0.09     7.73     0  03:01       0.014       0.328       2.162
  WS02005196           JUNCTION      0.12     7.68     0  03:01      0.0183       0.317       2.030
  WS02006109           JUNCTION      0.08    10.37     0  03:01      0.0129        0.59       4.293
  WS02006110           JUNCTION      0.08    10.45     0  03:01      0.0126        0.58       4.421
  WS02006111           JUNCTION      0.24    18.11     0  03:01      0.0352       0.815       2.595
  WS02006112           JUNCTION      0.18    18.26     0  03:01      0.0263       0.819       4.176
  WS02006113           JUNCTION      7.77    17.92     0  03:01       0.314       0.837       2.922
  WS02006115           JUNCTION      0.08    18.34     0  03:01      0.0129       0.802       4.950
  WS02006116           JUNCTION      0.24    18.53     0  03:01      0.0347       0.802       4.553
  WS02006183           JUNCTION      0.00     0.00     0  00:00           0           0       0.000 ltr
  WS02006228           JUNCTION     11.08    11.08     0  03:04       0.539       0.696       2.674
  WS02006229           JUNCTION      0.13     4.78     0  02:01      0.0193       0.282       6.039
  WS02006230           JUNCTION      0.07     4.80     0  02:01      0.0111       0.292       9.484
  WS02006231           JUNCTION      0.13     4.28     0  02:02      0.0197       0.299       5.273
  WS02006232           JUNCTION      5.50     6.63     0  03:01       0.215       0.493       3.222
  WS02006234           JUNCTION      0.14     6.75     0  03:01      0.0208       0.485       2.947
  WS02006235           JUNCTION      0.14     6.87     0  03:01      0.0215       0.481       1.660
  WS02006238           JUNCTION      0.15     7.00     0  03:01      0.0226       0.481       2.149
  WS02006239           JUNCTION      0.11     7.09     0  03:01      0.0167        0.48       3.281
  WS02006242           JUNCTION      0.08     7.22     0  03:01      0.0124        0.48       3.983
  WS02006240           JUNCTION      0.06     7.15     0  03:01     0.00952       0.476       3.556
  WS02006243           JUNCTION      0.17     7.37     0  03:01      0.0259       0.486       3.672
  WS02006245           JUNCTION      0.07     7.43     0  03:01      0.0109       0.476       2.857
  WS02006247           JUNCTION      4.99    12.38     0  03:01       0.231       0.673       1.718
  WS02006248           JUNCTION      0.12    22.90     0  03:01      0.0185        1.01       1.045
  WS02006249           JUNCTION      0.19    10.58     0  03:01      0.0275       0.471       3.119
  WS02006251           JUNCTION      2.54    10.33     0  03:01       0.102       0.447       3.255
  WS02006253           JUNCTION      0.11     7.84     0  03:01      0.0166       0.343       2.102
  WS02618401           JUNCTION      0.00     0.00     0  00:00           0           0       0.000 ltr
  WSA1649              JUNCTION      0.00     0.00     0  00:00           0           0       0.000 ltr
  outfall-5            OUTFALL       0.00    22.90     0  03:01           0       0.896       0.000
  outfall-14           OUTFALL       0.00    18.58     0  03:01           0       0.733       0.000
  outfall-16           OUTFALL       0.00     0.00     0  00:00           0           0       0.000 ltr
  CC-storage           STORAGE      23.02    23.02     0  03:01        1.14        1.14       0.005
  
  
  **********************
  Node Surcharge Summary
  **********************
  
  Surcharging occurs when water rises above the top of the highest conduit.
  ---------------------------------------------------------------------
                                               Max. Height   Min. Depth
                                   Hours       Above Crown    Below Rim
  Node                 Type      Surcharged         Meters       Meters
  ---------------------------------------------------------------------
  WS01000070           JUNCTION        3.83          0.000        0.000
  WS01000323           JUNCTION        3.83          0.000        0.000
  WS01000533           JUNCTION        3.83          0.000        2.147
  WS01005172           JUNCTION        3.83          0.000        0.000
  WS01005181           JUNCTION        3.83          0.000        0.000
  WS01009841           JUNCTION        3.83          0.000        0.000
  WS02000078           JUNCTION        3.83          0.000        0.000
  WS02000112           JUNCTION        3.83          0.000        0.000
  WS02000136           JUNCTION        3.83          0.000        0.000
  WS02004053           JUNCTION        3.83          0.000        0.000
  WS02006109           JUNCTION        2.17          0.942        0.896
  WS02006110           JUNCTION        2.17          0.960        0.885
  WS02006111           JUNCTION        2.19          0.969        0.908
  WS02006112           JUNCTION        2.42          1.223        0.460
  WS02006113           JUNCTION        2.18          0.967        0.966
  WS02006115           JUNCTION        2.44          1.239        1.060
  WS02006116           JUNCTION        2.52          1.297        1.053
  WS02006183           JUNCTION        3.83          0.000        0.000
  WS02006228           JUNCTION        2.15          0.915        1.316
  WS02006229           JUNCTION        2.12          0.875        1.579
  WS02006231           JUNCTION        2.05          0.765        0.778
  WS02006232           JUNCTION        1.97          0.635        0.854
  WS02006234           JUNCTION        1.90          0.503        0.754
  WS02006235           JUNCTION        1.90          0.491        0.803
  WS02006238           JUNCTION        1.89          0.481        0.953
  WS02006239           JUNCTION        1.87          0.449        0.880
  WS02006242           JUNCTION        1.83          0.354        0.495
  WS02006240           JUNCTION        1.83          0.366        1.037
  WS02006243           JUNCTION        1.76          0.231        0.549
  WS02006245           JUNCTION        1.74          0.158        0.697
  WS02006247           JUNCTION        1.74          0.136        0.624
  WS02006249           JUNCTION        0.71          0.044        0.344
  WS02618401           JUNCTION        3.83          0.000        0.000
  WSA1649              JUNCTION        3.83          0.000        0.000
  
  
  *********************
  Node Flooding Summary
  *********************
  
  Flooding refers to all water that overflows a node, whether it ponds or not.
  --------------------------------------------------------------------------
                                                             Total   Maximum
                                 Maximum   Time of Max       Flood    Ponded
                        Hours       Rate    Occurrence      Volume     Depth
  Node                 Flooded       MLD   days hr:min    10^6 ltr    Meters
  --------------------------------------------------------------------------
  CC-storage              2.20     23.01      0  03:01       0.981     0.000
  
  
  **********************
  Storage Volume Summary
  **********************
  
  --------------------------------------------------------------------------------------------------
                         Average     Avg  Evap Exfil       Maximum     Max    Time of Max    Maximum
                          Volume    Pcnt  Pcnt  Pcnt        Volume    Pcnt     Occurrence    Outflow
  Storage Unit           1000 m3    Full  Loss  Loss       1000 m3    Full    days hr:min        MLD
  --------------------------------------------------------------------------------------------------
  CC-storage               0.150      94     0     0         0.159     100       0  01:38       0.00
  
  
  ***********************
  Outfall Loading Summary
  ***********************
  
  ---------------------------------------------------------------------------------------------------------------------------------
                         Flow       Avg       Max       Total         Total         Total         Total         Total         Total
                         Freq      Flow      Flow      Volume           COD         NH3-N            TN            TP            SS
  Outfall Node           Pcnt       MLD       MLD    10^6 ltr            kg            kg            kg            kg            kg
  ---------------------------------------------------------------------------------------------------------------------------------
  outfall-5             85.06     12.76     22.90       0.896       143.156         0.000         0.000         0.000         0.000
  outfall-14            85.02     10.46     18.58       0.733       107.817         0.000         0.000         0.000         0.000
  outfall-16             0.00      0.00      0.00       0.000         0.000         0.000         0.000         0.000         0.000
  ---------------------------------------------------------------------------------------------------------------------------------
  System                56.69     23.22     41.45       1.629       250.973         0.000         0.000         0.000         0.000
  
  
  ********************
  Link Flow Summary
  ********************
  
  -----------------------------------------------------------------------------
                                 Maximum  Time of Max   Maximum    Max/    Max/
                                  |Flow|   Occurrence   |Veloc|    Full    Full
  Link                 Type          MLD  days hr:min     m/sec    Flow   Depth
  -----------------------------------------------------------------------------
  WSL2038              CONDUIT      7.58     0  03:01      0.52    0.38    0.83
  WSL2039              CONDUIT      7.75     0  03:01      0.79    0.40    0.90
  WSL2041              CONDUIT      7.65     0  03:01      0.58    0.38    0.87
  WSL2294              CONDUIT     10.37     0  03:01      0.43    0.35    1.00
  WSL2295              CONDUIT     10.45     0  03:01      0.50    0.47    1.00
  WSL2296              CONDUIT     18.12     0  03:01      0.63    0.10    1.00
  WSL2297              CONDUIT     18.26     0  03:01      0.34    0.35    1.00
  WSL2298              CONDUIT     17.92     0  03:01      0.87    0.82    1.00
  WSL2301              CONDUIT     18.34     0  03:01      0.29    0.17    1.00
  WSL2302              CONDUIT     18.54     0  03:01      0.27    0.23    1.00
  WSL2441              CONDUIT     10.30     0  03:01      0.44    0.26    1.00
  WSL2442              CONDUIT      4.74     0  02:01      0.63    0.12    1.00
  WSL2443              CONDUIT      4.16     0  02:02      0.73    0.06    1.00
  WSL2444              CONDUIT      4.31     0  02:02      0.89    0.07    1.00
  WSL2446              CONDUIT      6.63     0  03:01      0.85    0.11    1.00
  WSL2447              CONDUIT      6.75     0  03:01      0.73    0.35    1.00
  WSL2448              CONDUIT      6.87     0  03:01      0.59    0.19    1.00
  WSL2449              CONDUIT      6.99     0  03:01      0.57    0.24    1.00
  WSL2450              CONDUIT      7.09     0  03:01      0.65    0.15    1.00
  WSL2451              CONDUIT      7.15     0  03:01      0.63    0.47    1.00
  WSL2452              CONDUIT      7.22     0  03:01      0.65    0.14    1.00
  WSL2454              CONDUIT      7.37     0  03:01      0.80    0.17    1.00
  WSL2478              CONDUIT      7.44     0  03:01      0.69    0.26    1.00
  WSL2479              CONDUIT     12.38     0  03:01      0.61    0.24    1.00
  WSL2480              CONDUIT     10.59     0  03:02      0.67    0.49    1.00
  WSL2482              CONDUIT     10.43     0  03:01      0.59    0.27    0.99
  WSL2484              CONDUIT      7.92     0  03:01      0.69    0.11    0.88
  WSL2493              CONDUIT      4.67     0  02:01      0.51    0.08    1.00
  8                    CONDUIT     22.90     0  03:01      6.11    0.30    0.38
  19                   CONDUIT      0.00     0  00:00      0.00    0.00    0.00
  17                   CONDUIT     18.58     0  03:01      5.84    0.24    0.33
  CC-Pump-1            PUMP         0.00     0  00:00              0.00
  CC-Pump-2            PUMP         0.00     0  00:00              0.00
  
  
  ***************************
  Flow Classification Summary
  ***************************
  
  -------------------------------------------------------------------------------------
                      Adjusted    ---------- Fraction of Time in Flow Class ---------- 
                       /Actual         Up    Down  Sub   Sup   Up    Down  Norm  Inlet 
  Conduit               Length    Dry  Dry   Dry   Crit  Crit  Crit  Crit  Ltd   Ctrl  
  -------------------------------------------------------------------------------------
  WSL2038                 1.00   0.00  0.00  0.00  1.00  0.00  0.00  0.00  0.01  0.00
  WSL2039                 1.00   0.00  0.00  0.00  1.00  0.00  0.00  0.00  0.00  0.00
  WSL2041                 1.00   0.00  0.00  0.00  1.00  0.00  0.00  0.00  0.32  0.00
  WSL2294                 1.00   0.00  0.00  0.00  1.00  0.00  0.00  0.00  0.00  0.00
  WSL2295                 1.00   0.00  0.00  0.00  1.00  0.00  0.00  0.00  0.00  0.00
  WSL2296                 1.00   0.00  0.00  0.00  1.00  0.00  0.00  0.00  0.17  0.00
  WSL2297                 1.00   0.00  0.00  0.00  1.00  0.00  0.00  0.00  0.00  0.00
  WSL2298                 1.00   0.00  0.00  0.00  0.98  0.02  0.00  0.00  0.00  0.00
  WSL2301                 1.00   0.00  0.00  0.00  1.00  0.00  0.00  0.00  0.04  0.00
  WSL2302                 1.00   0.00  0.00  0.00  1.00  0.00  0.00  0.00  0.01  0.00
  WSL2441                 1.00   0.00  0.00  0.00  1.00  0.00  0.00  0.00  0.00  0.00
  WSL2442                 1.00   0.00  0.00  0.00  1.00  0.00  0.00  0.00  0.17  0.00
  WSL2443                 1.00   0.00  0.00  0.00  1.00  0.00  0.00  0.00  0.31  0.00
  WSL2444                 1.00   0.00  0.00  0.00  0.93  0.07  0.00  0.00  0.24  0.00
  WSL2446                 1.00   0.00  0.00  0.00  0.92  0.08  0.00  0.00  0.03  0.00
  WSL2447                 1.00   0.00  0.00  0.00  1.00  0.00  0.00  0.00  0.00  0.00
  WSL2448                 1.00   0.00  0.00  0.00  1.00  0.00  0.00  0.00  0.00  0.00
  WSL2449                 1.00   0.00  0.00  0.00  1.00  0.00  0.00  0.00  0.03  0.00
  WSL2450                 1.00   0.00  0.00  0.00  1.00  0.00  0.00  0.00  0.44  0.00
  WSL2451                 1.00   0.00  0.00  0.00  1.00  0.00  0.00  0.00  0.00  0.00
  WSL2452                 1.00   0.00  0.00  0.00  1.00  0.00  0.00  0.00  0.44  0.00
  WSL2454                 1.00   0.00  0.00  0.00  1.00  0.00  0.00  0.00  0.02  0.00
  WSL2478                 1.00   0.00  0.00  0.00  1.00  0.00  0.00  0.00  0.00  0.00
  WSL2479                 1.00   0.00  0.00  0.00  1.00  0.00  0.00  0.00  0.48  0.00
  WSL2480                 1.00   0.00  0.00  0.00  1.00  0.00  0.00  0.00  0.00  0.00
  WSL2482                 1.00   0.00  0.00  0.00  1.00  0.00  0.00  0.00  0.49  0.00
  WSL2484                 1.00   0.00  0.00  0.00  1.00  0.00  0.00  0.00  0.50  0.00
  WSL2493                 1.00   0.00  0.00  0.00  1.00  0.00  0.00  0.00  0.05  0.00
  8                       1.00   0.15  0.00  0.00  0.00  0.85  0.00  0.00  0.01  0.00
  19                      1.00   1.00  0.00  0.00  0.00  0.00  0.00  0.00  0.00  0.00
  17                      1.00   0.15  0.00  0.00  0.00  0.85  0.00  0.00  0.00  0.00
  
  
  *************************
  Conduit Surcharge Summary
  *************************
  
  ----------------------------------------------------------------------------
                                                           Hours        Hours 
                         --------- Hours Full --------   Above Full   Capacity
  Conduit                Both Ends  Upstream  Dnstream   Normal Flow   Limited
  ----------------------------------------------------------------------------
  WSL2294                     2.17      2.17      2.17      0.01         0.01
  WSL2295                     2.17      2.17      2.18      0.01         0.01
  WSL2296                     2.19      2.19      2.74      0.01         0.01
  WSL2297                     2.42      2.42      2.44      0.01         0.01
  WSL2298                     2.18      2.18      2.19      0.01         0.01
  WSL2301                     2.44      2.44      2.52      0.01         0.01
  WSL2302                     2.52      2.52      2.60      0.01         0.01
  WSL2441                     2.15      2.15      2.17      0.01         0.01
  WSL2442                     2.15      2.15      2.18      0.01         0.01
  WSL2443                     2.05      2.05      2.15      0.01         0.01
  WSL2444                     1.97      1.97      2.05      0.01         0.01
  WSL2446                     1.90      1.90      1.97      0.01         0.01
  WSL2447                     1.90      1.90      1.90      0.01         0.01
  WSL2448                     1.89      1.89      1.90      0.01         0.01
  WSL2449                     1.87      1.87      1.89      0.01         0.01
  WSL2450                     1.83      1.83      1.87      0.01         0.01
  WSL2451                     1.83      1.83      1.83      0.01         0.01
  WSL2452                     1.76      1.76      1.83      0.01         0.01
  WSL2454                     1.74      1.74      1.76      0.01         0.01
  WSL2478                     1.74      1.74      1.74      0.01         0.01
  WSL2479                     1.05      1.05      1.74      0.01         0.01
  WSL2480                     0.71      0.71      1.05      0.01         0.01
  WSL2482                     0.01      0.01      0.71      0.01         0.01
  WSL2493                     2.12      2.12      2.15      0.01         0.01
  
  
  ***************
  Pumping Summary
  ***************
  
  ---------------------------------------------------------------------------------------------------------
                                                  Min       Avg       Max     Total     Power    % Time Off
                        Percent   Number of      Flow      Flow      Flow    Volume     Usage    Pump Curve
  Pump                 Utilized   Start-Ups       MLD       MLD       MLD  10^6 ltr     Kw-hr    Low   High
  ---------------------------------------------------------------------------------------------------------
  CC-Pump-1                0.00           0      0.00      0.00      0.00     0.000      0.00    0.0    0.0
  CC-Pump-2                0.00           0      0.00      0.00      0.00     0.000      0.00    0.0    0.0
  
  
  ***************************
  Link Pollutant Load Summary
  ***************************
  
  ------------------------------------------------------------------------------------------
                                 COD         NH3-N            TN            TP            SS
  Link                            kg            kg            kg            kg            kg
  ------------------------------------------------------------------------------------------
  WSL2038                     51.405         0.000         0.000         0.000         0.000
  WSL2039                     56.304         0.000         0.000         0.000         0.000
  WSL2041                     54.059         0.000         0.000         0.000         0.000
  WSL2294                    139.796         0.000         0.000         0.000         0.000
  WSL2295                    130.095         0.000         0.000         0.000         0.000
  WSL2296                    127.009         0.000         0.000         0.000         0.000
  WSL2297                    121.447         0.000         0.000         0.000         0.000
  WSL2298                    125.500         0.000         0.000         0.000         0.000
  WSL2301                    116.493         0.000         0.000         0.000         0.000
  WSL2302                    113.201         0.000         0.000         0.000         0.000
  WSL2441                    148.455         0.000         0.000         0.000         0.000
  WSL2442                     59.718         0.000         0.000         0.000         0.000
  WSL2443                     56.345         0.000         0.000         0.000         0.000
  WSL2444                     54.388         0.000         0.000         0.000         0.000
  WSL2446                     53.172         0.000         0.000         0.000         0.000
  WSL2447                     52.241         0.000         0.000         0.000         0.000
  WSL2448                     51.951         0.000         0.000         0.000         0.000
  WSL2449                     50.937         0.000         0.000         0.000         0.000
  WSL2450                     50.035         0.000         0.000         0.000         0.000
  WSL2451                     49.266         0.000         0.000         0.000         0.000
  WSL2452                     48.974         0.000         0.000         0.000         0.000
  WSL2454                     48.402         0.000         0.000         0.000         0.000
  WSL2478                     48.085         0.000         0.000         0.000         0.000
  WSL2479                     78.530         0.000         0.000         0.000         0.000
  WSL2480                     90.633         0.000         0.000         0.000         0.000
  WSL2482                     86.970         0.000         0.000         0.000         0.000
  WSL2484                     59.247         0.000         0.000         0.000         0.000
  WSL2493                     61.228         0.000         0.000         0.000         0.000
  8                          143.156         0.000         0.000         0.000         0.000
  19                           0.000         0.000         0.000         0.000         0.000
  17                         107.817         0.000         0.000         0.000         0.000
  CC-Pump-1                    0.000         0.000         0.000         0.000         0.000
  CC-Pump-2                    0.000         0.000         0.000         0.000         0.000
  

  Analysis begun on:  Fri Aug 23 09:51:18 2019
  Analysis ended on:  Fri Aug 23 09:51:19 2019
  Total elapsed time: 00:00:01