
  EPA STORM WATER MANAGEMENT MODEL - VERSION 5.1 (Build 5.2.0.dev5)
  --------------------------------------------------------------

  
  *********************************************************
  NOTE: The summary statistics displayed in this report are
  based on results found at every computational time step,  
  not just on results from each reporting time step.
  *********************************************************
  
  ****************
  Analysis Options
  ****************
  Flow Units ............... MLD
  Process Models:
    Rainfall/Runoff ........ YES
    RDII ................... NO
    Snowmelt ............... NO
    Groundwater ............ NO
    Flow Routing ........... YES
    Ponding Allowed ........ NO
    Water Quality .......... YES
  Infiltration Method ...... GREEN_AMPT
  Flow Routing Method ...... DYNWAVE
  Surcharge Method ......... EXTRAN
  Starting Date ............ 08/28/2015 08:00:00
  Ending Date .............. 08/28/2015 11:50:00
  Antecedent Dry Days ...... 4.0
  Report Time Step ......... 00:01:00
  Wet Time Step ............ 00:01:00
  Dry Time Step ............ 00:01:00
  Routing Time Step ........ 5.00 sec
  Variable Time Step ....... YES
  Maximum Trials ........... 8
  Number of Threads ........ 1
  Head Tolerance ........... 0.001500 m
  
  
  **************************        Volume         Depth
  Runoff Quantity Continuity     hectare-m            mm
  **************************     ---------       -------
  Total Precipitation ......         0.670        10.837
  Evaporation Loss .........         0.000         0.000
  Infiltration Loss ........         0.389         6.281
  Surface Runoff ...........         0.114         1.848
  Final Storage ............         0.168         2.709
  Continuity Error (%) .....        -0.009
  
  
  **************************           COD         NH3-N            TN            TP            SS
  Runoff Quality Continuity             kg            kg            kg            kg            kg
  **************************    ----------    ----------    ----------    ----------    ----------
  Initial Buildup ..........      2504.640         0.000         0.000         0.000         0.000
  Surface Buildup ..........        20.162         0.000         0.000         0.000         0.000
  Wet Deposition ...........         0.000         0.000         0.000         0.000         0.000
  Sweeping Removal .........         0.000         0.000         0.000         0.000         0.000
  Infiltration Loss ........        33.611         0.000         0.000         0.000         0.000
  BMP Removal ..............         0.000         0.000         0.000         0.000         0.000
  Surface Runoff ...........       104.495         0.000         0.000         0.000         0.000
  Remaining Buildup ........      2386.366         0.000         0.000         0.000         0.000
  Continuity Error (%) .....         0.013         0.000         0.000         0.000         0.000
  
  
  **************************        Volume        Volume
  Flow Routing Continuity        hectare-m      10^6 ltr
  **************************     ---------     ---------
  Dry Weather Inflow .......         0.000         0.000
  Wet Weather Inflow .......         0.114         1.141
  Groundwater Inflow .......         0.000         0.000
  RDII Inflow ..............         0.000         0.000
  External Inflow ..........         0.082         0.822
  External Outflow .........         0.075         0.749
  Flooding Loss ............         0.055         0.552
  Evaporation Loss .........         0.000         0.000
  Exfiltration Loss ........         0.000         0.000
  Initial Stored Volume ....         0.000         0.000
  Final Stored Volume ......         0.062         0.618
  Continuity Error (%) .....         2.231
  
  
  **************************           COD         NH3-N            TN            TP            SS
  Quality Routing Continuity            kg            kg            kg            kg            kg
  **************************    ----------    ----------    ----------    ----------    ----------
  Dry Weather Inflow .......         0.000         0.000         0.000         0.000         0.000
  Wet Weather Inflow .......       104.276         0.000         0.000         0.000         0.000
  Groundwater Inflow .......         0.000         0.000         0.000         0.000         0.000
  RDII Inflow ..............         0.000         0.000         0.000         0.000         0.000
  External Inflow ..........       137.265         0.000         0.000         0.000         0.000
  External Outflow .........        90.078         0.000         0.000         0.000         0.000
  Flooding Loss ............        63.302         0.000         0.000         0.000         0.000
  Exfiltration Loss ........         0.000         0.000         0.000         0.000         0.000
  Mass Reacted .............         0.000         0.000         0.000         0.000         0.000
  Initial Stored Mass ......         0.000         0.000         0.000         0.000         0.000
  Final Stored Mass ........        80.634         0.000         0.000         0.000         0.000
  Continuity Error (%) .....         3.116         0.000         0.000         0.000         0.000
  
  
  *************************
  Highest Continuity Errors
  *************************
  Node WS02006230 (10.06%)
  Node WS02006115 (9.67%)
  Node WS02006116 (8.97%)
  Node WS02006112 (7.98%)
  Node WS02004401 (7.73%)
  
  
  ***************************
  Time-Step Critical Elements
  ***************************
  Link 8 (79.55%)
  Link WSL2448 (16.64%)
  
  
  ********************************
  Highest Flow Instability Indexes
  ********************************
  Link WSL2302 (4)
  Link WSL2301 (4)
  Link WSL2297 (4)
  Link WSL2296 (3)
  Link WSL2298 (3)
  
  
  *************************
  Routing Time Step Summary
  *************************
  Minimum Time Step           :     0.50 sec
  Average Time Step           :     1.47 sec
  Maximum Time Step           :     5.00 sec
  Percent in Steady State     :     0.00
  Average Iterations per Step :     2.05
  Percent Not Converging      :     0.18
  
  
  ***************************
  Subcatchment Runoff Summary
  ***************************
  
  ------------------------------------------------------------------------------------------------------------------------------
                            Total      Total      Total      Total     Imperv       Perv      Total       Total     Peak  Runoff
                           Precip      Runon       Evap      Infil     Runoff     Runoff     Runoff      Runoff   Runoff   Coeff
  Subcatchment                 mm         mm         mm         mm         mm         mm         mm    10^6 ltr      MLD
  ------------------------------------------------------------------------------------------------------------------------------
  1                         10.84       8.58       0.00       7.20       4.56       2.29       6.85        0.08     1.57   0.353
  2                         10.84       0.00       0.00       6.04       2.51       0.37       2.88        0.10     1.84   0.266
  3                         10.84       0.00       0.00       6.05       2.46       0.30       2.77        0.14     2.65   0.255
  35                        10.84       0.00       0.00       6.04       2.52       0.38       2.91        0.09     1.67   0.268
  36                        10.84       5.40       0.00       6.94       3.63       0.82       4.46        0.26     4.89   0.275
  40                        10.84       1.50       0.00       6.32       2.84       0.50       3.34        0.13     2.46   0.270
  41                        10.84       0.00       0.00       6.02       2.56       0.47       3.03        0.06     1.13   0.280
  42                        10.84       0.00       0.00       6.03       2.55       0.44       2.99        0.07     1.30   0.276
  43                        10.84       0.00       0.00       5.94       2.66       0.92       3.58        0.01     0.27   0.330
  44                        10.84      74.30       0.00      11.26      20.66      35.80      56.46        0.21     3.87   0.663
  45                        10.84       0.00       0.00       6.00       2.61       0.61       3.22        0.03     0.65   0.297
  46                        10.84       4.47       0.00       6.76       3.58       1.12       4.70        0.10     1.91   0.307
  47                        10.84       0.00       0.00       6.00       2.60       0.59       3.20        0.04     0.70   0.295
  48                        10.84       2.24       0.00       6.40       3.10       0.87       3.97        0.06     1.21   0.303
  55                        10.84       3.32       0.00       6.53       3.40       1.37       4.77        0.04     0.78   0.337
  56                        10.84       4.93       0.00       6.81       3.68       1.19       4.87        0.10     1.98   0.309
  57                        10.84       0.00       0.00       6.05       2.47       0.31       2.77        0.14     2.60   0.256
  59                        10.84       0.00       0.00       5.99       2.62       0.67       3.29        0.03     0.55   0.303
  60                        10.84       7.31       0.00       7.02       4.39       2.84       7.23        0.04     0.74   0.398
  61                        10.84       0.00       0.00       6.08       2.25       0.17       2.42        0.43     8.08   0.223
  64                        10.84       0.00       0.00       6.00       2.60       0.57       3.17        0.04     0.74   0.293
  
  
  ****************************
  Subcatchment Washoff Summary
  ****************************
  
  ------------------------------------------------------------------------------------------
                                 COD         NH3-N            TN            TP            SS
  Subcatchment                    kg            kg            kg            kg            kg
  ------------------------------------------------------------------------------------------
  1                            5.931         0.000         0.000         0.000         0.000
  2                            0.000         0.000         0.000         0.000         0.000
  3                            0.000         0.000         0.000         0.000         0.000
  35                           7.784         0.000         0.000         0.000         0.000
  36                          43.497         0.000         0.000         0.000         0.000
  40                          14.348         0.000         0.000         0.000         0.000
  41                           5.384         0.000         0.000         0.000         0.000
  42                           6.153         0.000         0.000         0.000         0.000
  43                           1.372         0.000         0.000         0.000         0.000
  44                          47.655         0.000         0.000         0.000         0.000
  45                           3.200         0.000         0.000         0.000         0.000
  46                          16.535         0.000         0.000         0.000         0.000
  47                           3.401         0.000         0.000         0.000         0.000
  48                           8.168         0.000         0.000         0.000         0.000
  55                           6.169         0.000         0.000         0.000         0.000
  56                          18.266         0.000         0.000         0.000         0.000
  57                          11.770         0.000         0.000         0.000         0.000
  59                           2.710         0.000         0.000         0.000         0.000
  60                           8.323         0.000         0.000         0.000         0.000
  61                          32.970         0.000         0.000         0.000         0.000
  64                           3.626         0.000         0.000         0.000         0.000
  ------------------------------------------------------------------------------------------
  System                     247.260         0.000         0.000         0.000         0.000
  
  
  ******************
  Node Depth Summary
  ******************
  
  ---------------------------------------------------------------------------------
                                 Average  Maximum  Maximum  Time of Max    Reported
                                   Depth    Depth      HGL   Occurrence   Max Depth
  Node                 Type       Meters   Meters   Meters  days hr:min      Meters
  ---------------------------------------------------------------------------------
  WS01000070           JUNCTION     0.00     0.00     0.00     0  00:00        0.00
  WS01000323           JUNCTION     0.00     0.00     0.00     0  00:00        0.00
  WS01000533           JUNCTION     0.00     0.00     6.86     0  00:00        0.00
  WS01005172           JUNCTION     0.00     0.00     0.00     0  00:00        0.00
  WS01005181           JUNCTION     0.00     0.00     0.00     0  00:00        0.00
  WS01009841           JUNCTION     0.00     0.00     0.00     0  00:00        0.00
  WS02000078           JUNCTION     0.00     0.00     0.00     0  00:00        0.00
  WS02000112           JUNCTION     0.00     0.00     0.00     0  00:00        0.00
  WS02000136           JUNCTION     0.00     0.00     0.00     0  00:00        0.00
  WS02004053           JUNCTION     0.00     0.00     0.00     0  00:00        0.00
  WS02004401           JUNCTION     2.03     2.28     8.28     0  03:01        2.28
  WS02005192           JUNCTION     0.33     0.43     8.30     0  02:17        0.43
  WS02005193           JUNCTION     0.38     0.47     8.29     0  02:17        0.47
  WS02005196           JUNCTION     0.35     0.44     8.29     0  02:17        0.44
  WS02006109           JUNCTION     1.43     1.67     8.29     0  03:00        1.67
  WS02006110           JUNCTION     1.45     1.69     8.29     0  03:00        1.69
  WS02006111           JUNCTION     1.46     1.71     8.29     0  03:00        1.71
  WS02006112           JUNCTION     1.91     2.17     8.29     0  03:00        2.16
  WS02006113           JUNCTION     1.46     1.70     8.29     0  03:00        1.70
  WS02006115           JUNCTION     1.93     2.19     8.29     0  03:00        2.18
  WS02006116           JUNCTION     1.99     2.24     8.28     0  03:00        2.24
  WS02006183           JUNCTION     0.00     0.00     0.00     0  00:00        0.00
  WS02006228           JUNCTION     1.40     1.64     8.29     0  03:00        1.64
  WS02006229           JUNCTION     1.36     1.60     8.29     0  03:00        1.60
  WS02006230           JUNCTION     1.31     1.54     8.29     0  03:00        1.54
  WS02006231           JUNCTION     1.17     1.39     8.29     0  03:00        1.39
  WS02006232           JUNCTION     1.05     1.26     8.29     0  03:00        1.26
  WS02006234           JUNCTION     0.94     1.13     8.29     0  03:00        1.13
  WS02006235           JUNCTION     0.93     1.12     8.29     0  03:00        1.12
  WS02006238           JUNCTION     0.92     1.11     8.29     0  03:00        1.11
  WS02006239           JUNCTION     0.90     1.08     8.29     0  03:00        1.08
  WS02006242           JUNCTION     0.82     0.99     8.29     0  03:00        0.99
  WS02006240           JUNCTION     0.82     1.00     8.29     0  03:00        1.00
  WS02006243           JUNCTION     0.71     0.87     8.29     0  03:00        0.86
  WS02006245           JUNCTION     0.65     0.80     8.29     0  03:00        0.79
  WS02006247           JUNCTION     0.64     0.77     8.28     0  03:00        0.77
  WS02006248           JUNCTION     0.56     0.69     8.28     0  03:01        0.69
  WS02006249           JUNCTION     0.56     0.68     8.28     0  03:01        0.68
  WS02006251           JUNCTION     0.50     0.62     8.29     0  02:17        0.62
  WS02006253           JUNCTION     0.39     0.49     8.29     0  02:17        0.48
  WS02618401           JUNCTION     0.00     0.00     0.00     0  00:00        0.00
  WSA1649              JUNCTION     0.00     0.00     0.00     0  00:00        0.00
  outfall-5            OUTFALL      0.06     0.09     7.76     0  03:00        0.09
  outfall-14           OUTFALL      0.05     0.08     7.74     0  03:01        0.08
  outfall-16           OUTFALL      0.00     0.00     8.39     0  00:00        0.00
  CC-storage           STORAGE      5.20     5.63     8.81     0  01:41        5.63
  
  
  *******************
  Node Inflow Summary
  *******************
  
  -------------------------------------------------------------------------------------------------
                                  Maximum  Maximum                  Lateral       Total        Flow
                                  Lateral    Total  Time of Max      Inflow      Inflow     Balance
                                   Inflow   Inflow   Occurrence      Volume      Volume       Error
  Node                 Type           MLD      MLD  days hr:min    10^6 ltr    10^6 ltr     Percent
  -------------------------------------------------------------------------------------------------
  WS01000070           JUNCTION      0.00     0.00     0  00:00           0           0       0.000 ltr
  WS01000323           JUNCTION      0.00     0.00     0  00:00           0           0       0.000 ltr
  WS01000533           JUNCTION      0.00     0.00     0  00:00           0           0       0.000 ltr
  WS01005172           JUNCTION      0.00     0.00     0  00:00           0           0       0.000 ltr
  WS01005181           JUNCTION      0.00     0.00     0  00:00           0           0       0.000 ltr
  WS01009841           JUNCTION      0.00     0.00     0  00:00           0           0       0.000 ltr
  WS02000078           JUNCTION      0.00     0.00     0  00:00           0           0       0.000 ltr
  WS02000112           JUNCTION      0.00     0.00     0  00:00           0           0       0.000 ltr
  WS02000136           JUNCTION      0.00     0.00     0  00:00           0           0       0.000 ltr
  WS02004053           JUNCTION      0.00     0.00     0  00:00           0           0       0.000 ltr
  WS02004401           JUNCTION      0.05     7.27     0  03:01      0.0086        0.36       8.383
  WS02005192           JUNCTION      2.70     2.70     0  03:01       0.155       0.155       1.458
  WS02005193           JUNCTION      0.09     2.89     0  03:01       0.014       0.183       3.689
  WS02005196           JUNCTION      0.12     2.80     0  03:01      0.0183       0.172       3.536
  WS02006109           JUNCTION      0.08     3.80     0  03:01      0.0129       0.334       7.871
  WS02006110           JUNCTION      0.08     3.88     0  03:01      0.0126       0.323       8.293
  WS02006111           JUNCTION      0.24     6.79     0  03:01      0.0352       0.411       5.340
  WS02006112           JUNCTION      0.18     6.94     0  03:01      0.0263       0.414       8.676
  WS02006113           JUNCTION      2.79     6.60     0  03:01       0.166       0.433       5.843
  WS02006115           JUNCTION      0.08     7.02     0  03:01      0.0129       0.396      10.702
  WS02006116           JUNCTION      0.24     7.22     0  03:01      0.0347       0.395       9.853
  WS02006183           JUNCTION      0.00     0.00     0  00:00           0           0       0.000 ltr
  WS02006228           JUNCTION      4.03     4.03     0  03:02       0.236       0.395       4.898
  WS02006229           JUNCTION      0.13     3.97     0  02:04      0.0193       0.238       7.369
  WS02006230           JUNCTION      0.07     4.24     0  02:04      0.0111       0.248      11.180
  WS02006231           JUNCTION      0.13     3.72     0  01:59      0.0197       0.255       6.418
  WS02006232           JUNCTION      1.91     4.66     0  01:59        0.11       0.344       4.736
  WS02006234           JUNCTION      0.14     4.69     0  02:04      0.0208       0.337       4.336
  WS02006235           JUNCTION      0.14     4.81     0  02:04      0.0215       0.332       2.540
  WS02006238           JUNCTION      0.15     5.01     0  02:04      0.0226       0.332       3.230
  WS02006239           JUNCTION      0.11     4.89     0  02:04      0.0167       0.329       4.894
  WS02006242           JUNCTION      0.08     4.44     0  02:13      0.0124       0.328       5.980
  WS02006240           JUNCTION      0.06     4.80     0  02:04     0.00952       0.325       5.345
  WS02006243           JUNCTION      0.17     4.58     0  02:16      0.0259       0.333       5.466
  WS02006245           JUNCTION      0.07     4.65     0  02:16      0.0109        0.32       4.320
  WS02006247           JUNCTION      1.71     5.48     0  02:16       0.107       0.394       2.978
  WS02006248           JUNCTION      0.12     9.07     0  03:00      0.0185        0.54       1.935
  WS02006249           JUNCTION      0.19     4.47     0  02:15      0.0275       0.274       5.343
  WS02006251           JUNCTION      0.84     4.17     0  02:15       0.049       0.249       5.753
  WS02006253           JUNCTION      0.11     3.16     0  02:18      0.0166       0.199       3.465
  WS02618401           JUNCTION      0.00     0.00     0  00:00           0           0       0.000 ltr
  WSA1649              JUNCTION      0.00     0.00     0  00:00           0           0       0.000 ltr
  outfall-5            OUTFALL       0.00     9.08     0  03:00           0       0.424       0.000
  outfall-14           OUTFALL       0.00     7.26     0  03:01           0       0.325       0.000
  outfall-16           OUTFALL       0.00     0.00     0  00:00           0           0       0.000 ltr
  CC-storage           STORAGE       9.58     9.58     0  03:00       0.711       0.711      -0.006
  
  
  **********************
  Node Surcharge Summary
  **********************
  
  Surcharging occurs when water rises above the top of the highest conduit.
  ---------------------------------------------------------------------
                                               Max. Height   Min. Depth
                                   Hours       Above Crown    Below Rim
  Node                 Type      Surcharged         Meters       Meters
  ---------------------------------------------------------------------
  WS01000070           JUNCTION        3.83          0.000        0.000
  WS01000323           JUNCTION        3.83          0.000        0.000
  WS01000533           JUNCTION        3.83          0.000        2.147
  WS01005172           JUNCTION        3.83          0.000        0.000
  WS01005181           JUNCTION        3.83          0.000        0.000
  WS01009841           JUNCTION        3.83          0.000        0.000
  WS02000078           JUNCTION        3.83          0.000        0.000
  WS02000112           JUNCTION        3.83          0.000        0.000
  WS02000136           JUNCTION        3.83          0.000        0.000
  WS02004053           JUNCTION        3.83          0.000        0.000
  WS02006109           JUNCTION        2.11          0.870        0.968
  WS02006110           JUNCTION        2.12          0.890        0.955
  WS02006111           JUNCTION        2.14          0.908        0.969
  WS02006112           JUNCTION        2.40          1.166        0.517
  WS02006113           JUNCTION        2.13          0.899        1.034
  WS02006115           JUNCTION        2.43          1.185        1.114
  WS02006116           JUNCTION        2.51          1.244        1.106
  WS02006183           JUNCTION        3.83          0.000        0.000
  WS02006228           JUNCTION        2.09          0.839        1.392
  WS02006229           JUNCTION        2.06          0.799        1.655
  WS02006231           JUNCTION        1.99          0.687        0.856
  WS02006232           JUNCTION        1.88          0.558        0.931
  WS02006234           JUNCTION        1.78          0.428        0.829
  WS02006235           JUNCTION        1.78          0.418        0.876
  WS02006238           JUNCTION        1.77          0.408        1.026
  WS02006239           JUNCTION        1.75          0.377        0.952
  WS02006242           JUNCTION        1.69          0.286        0.563
  WS02006240           JUNCTION        1.70          0.297        1.106
  WS02006243           JUNCTION        1.62          0.166        0.614
  WS02006245           JUNCTION        1.59          0.096        0.759
  WS02006247           JUNCTION        1.58          0.075        0.685
  WS02618401           JUNCTION        3.83          0.000        0.000
  WSA1649              JUNCTION        3.83          0.000        0.000
  
  
  *********************
  Node Flooding Summary
  *********************
  
  Flooding refers to all water that overflows a node, whether it ponds or not.
  --------------------------------------------------------------------------
                                                             Total   Maximum
                                 Maximum   Time of Max       Flood    Ponded
                        Hours       Rate    Occurrence      Volume     Depth
  Node                 Flooded       MLD   days hr:min    10^6 ltr    Meters
  --------------------------------------------------------------------------
  CC-storage              2.14      9.58      0  03:00       0.552     0.000
  
  
  **********************
  Storage Volume Summary
  **********************
  
  --------------------------------------------------------------------------------------------------
                         Average     Avg  Evap Exfil       Maximum     Max    Time of Max    Maximum
                          Volume    Pcnt  Pcnt  Pcnt        Volume    Pcnt     Occurrence    Outflow
  Storage Unit           1000 m3    Full  Loss  Loss       1000 m3    Full    days hr:min        MLD
  --------------------------------------------------------------------------------------------------
  CC-storage               0.147      92     0     0         0.159     100       0  01:41       0.00
  
  
  ***********************
  Outfall Loading Summary
  ***********************
  
  ---------------------------------------------------------------------------------------------------------------------------------
                         Flow       Avg       Max       Total         Total         Total         Total         Total         Total
                         Freq      Flow      Flow      Volume           COD         NH3-N            TN            TP            SS
  Outfall Node           Pcnt       MLD       MLD    10^6 ltr            kg            kg            kg            kg            kg
  ---------------------------------------------------------------------------------------------------------------------------------
  outfall-5             79.91      6.54      9.08       0.424        49.577         0.000         0.000         0.000         0.000
  outfall-14            79.77      5.04      7.26       0.325        40.507         0.000         0.000         0.000         0.000
  outfall-16             0.00      0.00      0.00       0.000         0.000         0.000         0.000         0.000         0.000
  ---------------------------------------------------------------------------------------------------------------------------------
  System                53.23     11.58     16.33       0.749        90.084         0.000         0.000         0.000         0.000
  
  
  ********************
  Link Flow Summary
  ********************
  
  -----------------------------------------------------------------------------
                                 Maximum  Time of Max   Maximum    Max/    Max/
                                  |Flow|   Occurrence   |Veloc|    Full    Full
  Link                 Type          MLD  days hr:min     m/sec    Flow   Depth
  -----------------------------------------------------------------------------
  WSL2038              CONDUIT      2.69     0  03:01      0.47    0.13    0.72
  WSL2039              CONDUIT      3.06     0  02:18      0.71    0.16    0.80
  WSL2041              CONDUIT      2.80     0  03:01      0.52    0.14    0.76
  WSL2294              CONDUIT      3.80     0  03:01      0.43    0.13    1.00
  WSL2295              CONDUIT      3.88     0  03:01      0.50    0.17    1.00
  WSL2296              CONDUIT      6.80     0  03:01      0.63    0.04    1.00
  WSL2297              CONDUIT      6.95     0  03:01      0.34    0.13    1.00
  WSL2298              CONDUIT      6.60     0  03:01      0.87    0.30    1.00
  WSL2301              CONDUIT      7.03     0  03:01      0.29    0.06    1.00
  WSL2302              CONDUIT      7.22     0  03:01      0.23    0.09    1.00
  WSL2441              CONDUIT      3.73     0  03:01      0.44    0.10    1.00
  WSL2442              CONDUIT      4.17     0  02:04      0.63    0.11    1.00
  WSL2443              CONDUIT      3.59     0  01:59      0.73    0.06    1.00
  WSL2444              CONDUIT      3.70     0  01:59      0.87    0.06    1.00
  WSL2446              CONDUIT      4.56     0  02:04      0.84    0.08    1.00
  WSL2447              CONDUIT      4.68     0  02:04      0.70    0.24    1.00
  WSL2448              CONDUIT      4.87     0  02:04      0.56    0.14    1.00
  WSL2449              CONDUIT      4.79     0  02:04      0.54    0.17    1.00
  WSL2450              CONDUIT      4.74     0  02:04      0.62    0.10    1.00
  WSL2451              CONDUIT      4.36     0  02:13      0.59    0.28    1.00
  WSL2452              CONDUIT      4.42     0  02:16      0.61    0.08    1.00
  WSL2454              CONDUIT      4.58     0  02:16      0.75    0.11    1.00
  WSL2478              CONDUIT      4.63     0  02:15      0.65    0.16    1.00
  WSL2479              CONDUIT      5.52     0  02:16      0.58    0.10    1.00
  WSL2480              CONDUIT      4.30     0  02:15      0.62    0.20    0.98
  WSL2482              CONDUIT      3.82     0  03:01      0.54    0.10    0.93
  WSL2484              CONDUIT      3.38     0  02:19      0.64    0.05    0.79
  WSL2493              CONDUIT      3.85     0  02:04      0.51    0.06    1.00
  8                    CONDUIT      9.08     0  03:00      4.70    0.12    0.23
  19                   CONDUIT      0.00     0  00:00      0.00    0.00    0.00
  17                   CONDUIT      7.26     0  03:01      4.46    0.09    0.21
  CC-Pump-1            PUMP         0.00     0  00:00              0.00
  CC-Pump-2            PUMP         0.00     0  00:00              0.00
  
  
  ***************************
  Flow Classification Summary
  ***************************
  
  -------------------------------------------------------------------------------------
                      Adjusted    ---------- Fraction of Time in Flow Class ---------- 
                       /Actual         Up    Down  Sub   Sup   Up    Down  Norm  Inlet 
  Conduit               Length    Dry  Dry   Dry   Crit  Crit  Crit  Crit  Ltd   Ctrl  
  -------------------------------------------------------------------------------------
  WSL2038                 1.00   0.00  0.00  0.00  1.00  0.00  0.00  0.00  0.01  0.00
  WSL2039                 1.00   0.00  0.00  0.00  1.00  0.00  0.00  0.00  0.00  0.00
  WSL2041                 1.00   0.00  0.00  0.00  1.00  0.00  0.00  0.00  0.34  0.00
  WSL2294                 1.00   0.00  0.00  0.00  1.00  0.00  0.00  0.00  0.00  0.00
  WSL2295                 1.00   0.00  0.00  0.00  1.00  0.00  0.00  0.00  0.00  0.00
  WSL2296                 1.00   0.00  0.00  0.00  1.00  0.00  0.00  0.00  0.17  0.00
  WSL2297                 1.00   0.00  0.00  0.00  1.00  0.00  0.00  0.00  0.00  0.00
  WSL2298                 1.00   0.00  0.00  0.00  0.97  0.03  0.00  0.00  0.00  0.00
  WSL2301                 1.00   0.00  0.00  0.00  1.00  0.00  0.00  0.00  0.04  0.00
  WSL2302                 1.00   0.00  0.00  0.00  1.00  0.00  0.00  0.00  0.01  0.00
  WSL2441                 1.00   0.00  0.00  0.00  1.00  0.00  0.00  0.00  0.00  0.00
  WSL2442                 1.00   0.00  0.00  0.00  1.00  0.00  0.00  0.00  0.17  0.00
  WSL2443                 1.00   0.00  0.00  0.00  1.00  0.00  0.00  0.00  0.31  0.00
  WSL2444                 1.00   0.00  0.00  0.00  0.91  0.09  0.00  0.00  0.25  0.00
  WSL2446                 1.00   0.00  0.00  0.00  0.89  0.11  0.00  0.00  0.03  0.00
  WSL2447                 1.00   0.00  0.00  0.00  1.00  0.00  0.00  0.00  0.00  0.00
  WSL2448                 1.00   0.00  0.00  0.00  1.00  0.00  0.00  0.00  0.00  0.00
  WSL2449                 1.00   0.00  0.00  0.00  1.00  0.00  0.00  0.00  0.03  0.00
  WSL2450                 1.00   0.00  0.00  0.00  1.00  0.00  0.00  0.00  0.45  0.00
  WSL2451                 1.00   0.00  0.00  0.00  1.00  0.00  0.00  0.00  0.00  0.00
  WSL2452                 1.00   0.00  0.00  0.00  1.00  0.00  0.00  0.00  0.46  0.00
  WSL2454                 1.00   0.00  0.00  0.00  1.00  0.00  0.00  0.00  0.02  0.00
  WSL2478                 1.00   0.00  0.00  0.00  1.00  0.00  0.00  0.00  0.00  0.00
  WSL2479                 1.00   0.00  0.00  0.00  1.00  0.00  0.00  0.00  0.50  0.00
  WSL2480                 1.00   0.00  0.00  0.00  1.00  0.00  0.00  0.00  0.00  0.00
  WSL2482                 1.00   0.00  0.00  0.00  1.00  0.00  0.00  0.00  0.52  0.00
  WSL2484                 1.00   0.00  0.00  0.00  1.00  0.00  0.00  0.00  0.52  0.00
  WSL2493                 1.00   0.00  0.00  0.00  1.00  0.00  0.00  0.00  0.05  0.00
  8                       1.00   0.20  0.00  0.00  0.00  0.80  0.00  0.00  0.01  0.00
  19                      1.00   1.00  0.00  0.00  0.00  0.00  0.00  0.00  0.00  0.00
  17                      1.00   0.20  0.00  0.00  0.00  0.80  0.00  0.00  0.00  0.00
  
  
  *************************
  Conduit Surcharge Summary
  *************************
  
  ----------------------------------------------------------------------------
                                                           Hours        Hours 
                         --------- Hours Full --------   Above Full   Capacity
  Conduit                Both Ends  Upstream  Dnstream   Normal Flow   Limited
  ----------------------------------------------------------------------------
  WSL2294                     2.11      2.11      2.12      0.01         0.01
  WSL2295                     2.12      2.12      2.13      0.01         0.01
  WSL2296                     2.14      2.14      2.74      0.01         0.01
  WSL2297                     2.40      2.40      2.43      0.01         0.01
  WSL2298                     2.13      2.13      2.14      0.01         0.01
  WSL2301                     2.43      2.43      2.51      0.01         0.01
  WSL2302                     2.51      2.51      2.59      0.01         0.01
  WSL2441                     2.09      2.09      2.11      0.01         0.01
  WSL2442                     2.09      2.09      2.13      0.01         0.01
  WSL2443                     1.99      1.99      2.09      0.01         0.01
  WSL2444                     1.88      1.88      1.99      0.01         0.01
  WSL2446                     1.78      1.78      1.88      0.01         0.01
  WSL2447                     1.78      1.78      1.78      0.01         0.01
  WSL2448                     1.77      1.77      1.78      0.01         0.01
  WSL2449                     1.75      1.75      1.77      0.01         0.01
  WSL2450                     1.70      1.70      1.75      0.01         0.01
  WSL2451                     1.69      1.69      1.70      0.01         0.01
  WSL2452                     1.62      1.62      1.69      0.01         0.01
  WSL2454                     1.59      1.59      1.62      0.01         0.01
  WSL2478                     1.58      1.58      1.59      0.01         0.01
  WSL2479                     0.01      0.01      1.58      0.01         0.01
  WSL2493                     2.06      2.06      2.09      0.01         0.01
  
  
  ***************
  Pumping Summary
  ***************
  
  ---------------------------------------------------------------------------------------------------------
                                                  Min       Avg       Max     Total     Power    % Time Off
                        Percent   Number of      Flow      Flow      Flow    Volume     Usage    Pump Curve
  Pump                 Utilized   Start-Ups       MLD       MLD       MLD  10^6 ltr     Kw-hr    Low   High
  ---------------------------------------------------------------------------------------------------------
  CC-Pump-1                0.00           0      0.00      0.00      0.00     0.000      0.00    0.0    0.0
  CC-Pump-2                0.00           0      0.00      0.00      0.00     0.000      0.00    0.0    0.0
  
  
  ***************************
  Link Pollutant Load Summary
  ***************************
  
  ------------------------------------------------------------------------------------------
                                 COD         NH3-N            TN            TP            SS
  Link                            kg            kg            kg            kg            kg
  ------------------------------------------------------------------------------------------
  WSL2038                     14.554         0.000         0.000         0.000         0.000
  WSL2039                     19.613         0.000         0.000         0.000         0.000
  WSL2041                     17.323         0.000         0.000         0.000         0.000
  WSL2294                     51.531         0.000         0.000         0.000         0.000
  WSL2295                     45.377         0.000         0.000         0.000         0.000
  WSL2296                     46.835         0.000         0.000         0.000         0.000
  WSL2297                     46.307         0.000         0.000         0.000         0.000
  WSL2298                     43.522         0.000         0.000         0.000         0.000
  WSL2301                     45.106         0.000         0.000         0.000         0.000
  WSL2302                     45.915         0.000         0.000         0.000         0.000
  WSL2441                     56.334         0.000         0.000         0.000         0.000
  WSL2442                     42.761         0.000         0.000         0.000         0.000
  WSL2443                     41.142         0.000         0.000         0.000         0.000
  WSL2444                     40.211         0.000         0.000         0.000         0.000
  WSL2446                     39.612         0.000         0.000         0.000         0.000
  WSL2447                     39.058         0.000         0.000         0.000         0.000
  WSL2448                     38.753         0.000         0.000         0.000         0.000
  WSL2449                     38.299         0.000         0.000         0.000         0.000
  WSL2450                     38.060         0.000         0.000         0.000         0.000
  WSL2451                     37.884         0.000         0.000         0.000         0.000
  WSL2452                     38.160         0.000         0.000         0.000         0.000
  WSL2454                     37.501         0.000         0.000         0.000         0.000
  WSL2478                     37.047         0.000         0.000         0.000         0.000
  WSL2479                     41.681         0.000         0.000         0.000         0.000
  WSL2480                     33.504         0.000         0.000         0.000         0.000
  WSL2482                     29.497         0.000         0.000         0.000         0.000
  WSL2484                     22.497         0.000         0.000         0.000         0.000
  WSL2493                     42.425         0.000         0.000         0.000         0.000
  8                           49.577         0.000         0.000         0.000         0.000
  19                           0.000         0.000         0.000         0.000         0.000
  17                          40.507         0.000         0.000         0.000         0.000
  CC-Pump-1                    0.000         0.000         0.000         0.000         0.000
  CC-Pump-2                    0.000         0.000         0.000         0.000         0.000
  

  Analysis begun on:  Sun Aug 18 10:00:26 2019
  Analysis ended on:  Sun Aug 18 10:00:27 2019
  Total elapsed time: 00:00:01