
  EPA STORM WATER MANAGEMENT MODEL - VERSION 5.1 (Build 5.2.0.dev5)
  --------------------------------------------------------------

  
  *********************************************************
  NOTE: The summary statistics displayed in this report are
  based on results found at every computational time step,  
  not just on results from each reporting time step.
  *********************************************************
  
  ****************
  Analysis Options
  ****************
  Flow Units ............... MLD
  Process Models:
    Rainfall/Runoff ........ YES
    RDII ................... NO
    Snowmelt ............... NO
    Groundwater ............ NO
    Flow Routing ........... YES
    Ponding Allowed ........ NO
    Water Quality .......... YES
  Infiltration Method ...... GREEN_AMPT
  Flow Routing Method ...... DYNWAVE
  Surcharge Method ......... EXTRAN
  Starting Date ............ 08/28/2015 08:00:00
  Ending Date .............. 08/28/2015 11:50:00
  Antecedent Dry Days ...... 4.0
  Report Time Step ......... 00:01:00
  Wet Time Step ............ 00:01:00
  Dry Time Step ............ 00:01:00
  Routing Time Step ........ 5.00 sec
  Variable Time Step ....... YES
  Maximum Trials ........... 8
  Number of Threads ........ 1
  Head Tolerance ........... 0.001500 m
  
  
  **************************        Volume         Depth
  Runoff Quantity Continuity     hectare-m            mm
  **************************     ---------       -------
  Total Precipitation ......         0.899        14.540
  Evaporation Loss .........         0.000         0.000
  Infiltration Loss ........         0.443         7.165
  Surface Runoff ...........         0.176         2.839
  Final Storage ............         0.281         4.536
  Continuity Error (%) .....        -0.007
  
  
  **************************           COD         NH3-N            TN            TP            SS
  Runoff Quality Continuity             kg            kg            kg            kg            kg
  **************************    ----------    ----------    ----------    ----------    ----------
  Initial Buildup ..........      2504.640         0.000         0.000         0.000         0.000
  Surface Buildup ..........        19.761         0.000         0.000         0.000         0.000
  Wet Deposition ...........         0.000         0.000         0.000         0.000         0.000
  Sweeping Removal .........         0.000         0.000         0.000         0.000         0.000
  Infiltration Loss ........        58.317         0.000         0.000         0.000         0.000
  BMP Removal ..............         0.000         0.000         0.000         0.000         0.000
  Surface Runoff ...........       213.189         0.000         0.000         0.000         0.000
  Remaining Buildup ........      2252.050         0.000         0.000         0.000         0.000
  Continuity Error (%) .....         0.033         0.000         0.000         0.000         0.000
  
  
  **************************        Volume        Volume
  Flow Routing Continuity        hectare-m      10^6 ltr
  **************************     ---------     ---------
  Dry Weather Inflow .......         0.000         0.000
  Wet Weather Inflow .......         0.175         1.752
  Groundwater Inflow .......         0.000         0.000
  RDII Inflow ..............         0.000         0.000
  External Inflow ..........         0.082         0.822
  External Outflow .........         0.116         1.159
  Flooding Loss ............         0.075         0.755
  Evaporation Loss .........         0.000         0.000
  Exfiltration Loss ........         0.000         0.000
  Initial Stored Volume ....         0.000         0.000
  Final Stored Volume ......         0.062         0.619
  Continuity Error (%) .....         1.591
  
  
  **************************           COD         NH3-N            TN            TP            SS
  Quality Routing Continuity            kg            kg            kg            kg            kg
  **************************    ----------    ----------    ----------    ----------    ----------
  Dry Weather Inflow .......         0.000         0.000         0.000         0.000         0.000
  Wet Weather Inflow .......       212.694         0.000         0.000         0.000         0.000
  Groundwater Inflow .......         0.000         0.000         0.000         0.000         0.000
  RDII Inflow ..............         0.000         0.000         0.000         0.000         0.000
  External Inflow ..........       137.267         0.000         0.000         0.000         0.000
  External Outflow .........       148.877         0.000         0.000         0.000         0.000
  Flooding Loss ............        96.163         0.000         0.000         0.000         0.000
  Exfiltration Loss ........         0.000         0.000         0.000         0.000         0.000
  Mass Reacted .............         0.000         0.000         0.000         0.000         0.000
  Initial Stored Mass ......         0.000         0.000         0.000         0.000         0.000
  Final Stored Mass ........        97.425         0.000         0.000         0.000         0.000
  Continuity Error (%) .....         2.142         0.000         0.000         0.000         0.000
  
  
  *************************
  Highest Continuity Errors
  *************************
  Node WS02006230 (9.32%)
  Node WS02006115 (6.49%)
  Node WS02006229 (6.25%)
  Node WS02006116 (5.99%)
  Node WS02006110 (5.60%)
  
  
  ***************************
  Time-Step Critical Elements
  ***************************
  Link 8 (83.91%)
  Link WSL2448 (13.15%)
  
  
  ********************************
  Highest Flow Instability Indexes
  ********************************
  Link WSL2302 (4)
  Link WSL2301 (3)
  Link WSL2297 (3)
  Link WSL2296 (3)
  Link WSL2298 (2)
  
  
  *************************
  Routing Time Step Summary
  *************************
  Minimum Time Step           :     0.01 sec
  Average Time Step           :     1.27 sec
  Maximum Time Step           :     5.00 sec
  Percent in Steady State     :     0.00
  Average Iterations per Step :     2.05
  Percent Not Converging      :     0.17
  
  
  ***************************
  Subcatchment Runoff Summary
  ***************************
  
  ------------------------------------------------------------------------------------------------------------------------------
                            Total      Total      Total      Total     Imperv       Perv      Total       Total     Peak  Runoff
                           Precip      Runon       Evap      Infil     Runoff     Runoff     Runoff      Runoff   Runoff   Coeff
  Subcatchment                 mm         mm         mm         mm         mm         mm         mm    10^6 ltr      MLD
  ------------------------------------------------------------------------------------------------------------------------------
  1                         14.54      13.85       0.00       8.32       6.70       4.91      11.61        0.14     2.64   0.409
  2                         14.54       0.00       0.00       6.86       3.42       0.90       4.32        0.15     2.76   0.297
  3                         14.54       0.00       0.00       6.88       3.37       0.75       4.12        0.21     3.95   0.283
  35                        14.54       0.00       0.00       6.85       3.44       0.94       4.37        0.13     2.52   0.301
  36                        14.54       8.34       0.00       8.03       5.20       1.84       7.04        0.42     7.68   0.308
  40                        14.54       2.28       0.00       7.21       3.92       1.17       5.10        0.20     3.76   0.303
  41                        14.54       0.00       0.00       6.82       3.48       1.13       4.61        0.09     1.72   0.317
  42                        14.54       0.00       0.00       6.83       3.47       1.06       4.52        0.10     1.98   0.311
  43                        14.54       0.00       0.00       6.64       3.58       2.10       5.68        0.02     0.42   0.391
  44                        14.54     117.32       0.00      13.02      32.10      62.92      95.02        0.35     6.47   0.721
  45                        14.54       0.00       0.00       6.76       3.53       1.45       4.98        0.05     1.01   0.342
  46                        14.54       7.00       0.00       7.76       5.08       2.48       7.56        0.16     3.07   0.351
  47                        14.54       0.00       0.00       6.77       3.52       1.41       4.93        0.05     1.08   0.339
  48                        14.54       3.46       0.00       7.29       4.30       1.96       6.26        0.10     1.91   0.348
  55                        14.54       5.15       0.00       7.42       4.75       2.98       7.74        0.06     1.26   0.393
  56                        14.54       7.70       0.00       7.84       5.23       2.63       7.87        0.17     3.19   0.354
  57                        14.54       0.00       0.00       6.88       3.37       0.76       4.13        0.21     3.88   0.284
  59                        14.54       0.00       0.00       6.74       3.54       1.56       5.10        0.04     0.85   0.351
  60                        14.54      11.25       0.00       7.99       6.25       5.73      11.98        0.06     1.23   0.465
  61                        14.54       0.00       0.00       6.93       3.12       0.42       3.55        0.64    11.83   0.244
  64                        14.54       0.00       0.00       6.78       3.52       1.37       4.88        0.06     1.15   0.336
  
  
  ****************************
  Subcatchment Washoff Summary
  ****************************
  
  ------------------------------------------------------------------------------------------
                                 COD         NH3-N            TN            TP            SS
  Subcatchment                    kg            kg            kg            kg            kg
  ------------------------------------------------------------------------------------------
  1                           15.763         0.000         0.000         0.000         0.000
  2                            0.000         0.000         0.000         0.000         0.000
  3                            0.000         0.000         0.000         0.000         0.000
  35                          16.470         0.000         0.000         0.000         0.000
  36                          98.138         0.000         0.000         0.000         0.000
  40                          31.146         0.000         0.000         0.000         0.000
  41                          11.582         0.000         0.000         0.000         0.000
  42                          13.153         0.000         0.000         0.000         0.000
  43                           3.157         0.000         0.000         0.000         0.000
  44                          91.014         0.000         0.000         0.000         0.000
  45                           7.066         0.000         0.000         0.000         0.000
  46                          38.284         0.000         0.000         0.000         0.000
  47                           7.489         0.000         0.000         0.000         0.000
  48                          18.562         0.000         0.000         0.000         0.000
  55                          14.368         0.000         0.000         0.000         0.000
  56                          42.189         0.000         0.000         0.000         0.000
  57                          24.529         0.000         0.000         0.000         0.000
  59                           6.037         0.000         0.000         0.000         0.000
  60                          17.979         0.000         0.000         0.000         0.000
  61                          67.516         0.000         0.000         0.000         0.000
  64                           7.956         0.000         0.000         0.000         0.000
  ------------------------------------------------------------------------------------------
  System                     532.396         0.000         0.000         0.000         0.000
  
  
  ******************
  Node Depth Summary
  ******************
  
  ---------------------------------------------------------------------------------
                                 Average  Maximum  Maximum  Time of Max    Reported
                                   Depth    Depth      HGL   Occurrence   Max Depth
  Node                 Type       Meters   Meters   Meters  days hr:min      Meters
  ---------------------------------------------------------------------------------
  WS01000070           JUNCTION     0.00     0.00     0.00     0  00:00        0.00
  WS01000323           JUNCTION     0.00     0.00     0.00     0  00:00        0.00
  WS01000533           JUNCTION     0.00     0.00     6.86     0  00:00        0.00
  WS01005172           JUNCTION     0.00     0.00     0.00     0  00:00        0.00
  WS01005181           JUNCTION     0.00     0.00     0.00     0  00:00        0.00
  WS01009841           JUNCTION     0.00     0.00     0.00     0  00:00        0.00
  WS02000078           JUNCTION     0.00     0.00     0.00     0  00:00        0.00
  WS02000112           JUNCTION     0.00     0.00     0.00     0  00:00        0.00
  WS02000136           JUNCTION     0.00     0.00     0.00     0  00:00        0.00
  WS02004053           JUNCTION     0.00     0.00     0.00     0  00:00        0.00
  WS02004401           JUNCTION     2.08     2.30     8.30     0  03:01        2.30
  WS02005192           JUNCTION     0.36     0.44     8.31     0  02:08        0.44
  WS02005193           JUNCTION     0.40     0.49     8.31     0  02:07        0.49
  WS02005196           JUNCTION     0.38     0.46     8.31     0  02:08        0.46
  WS02006109           JUNCTION     1.48     1.69     8.31     0  03:00        1.69
  WS02006110           JUNCTION     1.50     1.71     8.31     0  03:00        1.71
  WS02006111           JUNCTION     1.51     1.73     8.31     0  03:00        1.73
  WS02006112           JUNCTION     1.96     2.19     8.31     0  03:00        2.18
  WS02006113           JUNCTION     1.51     1.72     8.31     0  03:00        1.72
  WS02006115           JUNCTION     1.98     2.20     8.30     0  03:00        2.20
  WS02006116           JUNCTION     2.04     2.26     8.30     0  03:00        2.26
  WS02006183           JUNCTION     0.00     0.00     0.00     0  00:00        0.00
  WS02006228           JUNCTION     1.45     1.66     8.31     0  03:00        1.66
  WS02006229           JUNCTION     1.41     1.62     8.31     0  03:00        1.62
  WS02006230           JUNCTION     1.36     1.56     8.31     0  03:01        1.56
  WS02006231           JUNCTION     1.22     1.41     8.31     0  03:00        1.41
  WS02006232           JUNCTION     1.10     1.28     8.31     0  03:00        1.28
  WS02006234           JUNCTION     0.98     1.15     8.31     0  03:00        1.15
  WS02006235           JUNCTION     0.98     1.14     8.31     0  03:00        1.14
  WS02006238           JUNCTION     0.97     1.13     8.31     0  03:00        1.13
  WS02006239           JUNCTION     0.94     1.10     8.31     0  03:00        1.10
  WS02006242           JUNCTION     0.86     1.01     8.31     0  03:00        1.01
  WS02006240           JUNCTION     0.87     1.02     8.31     0  03:00        1.02
  WS02006243           JUNCTION     0.75     0.89     8.31     0  03:00        0.89
  WS02006245           JUNCTION     0.69     0.82     8.31     0  03:00        0.82
  WS02006247           JUNCTION     0.67     0.80     8.31     0  03:00        0.79
  WS02006248           JUNCTION     0.60     0.71     8.30     0  03:01        0.71
  WS02006249           JUNCTION     0.59     0.70     8.30     0  03:00        0.70
  WS02006251           JUNCTION     0.53     0.63     8.30     0  03:01        0.63
  WS02006253           JUNCTION     0.42     0.51     8.31     0  02:07        0.51
  WS02618401           JUNCTION     0.00     0.00     0.00     0  00:00        0.00
  WSA1649              JUNCTION     0.00     0.00     0.00     0  00:00        0.00
  outfall-5            OUTFALL      0.08     0.11     7.78     0  03:01        0.11
  outfall-14           OUTFALL      0.07     0.10     7.76     0  03:01        0.10
  outfall-16           OUTFALL      0.00     0.00     8.39     0  00:00        0.00
  CC-storage           STORAGE      5.27     5.63     8.81     0  01:37        5.63
  
  
  *******************
  Node Inflow Summary
  *******************
  
  -------------------------------------------------------------------------------------------------
                                  Maximum  Maximum                  Lateral       Total        Flow
                                  Lateral    Total  Time of Max      Inflow      Inflow     Balance
                                   Inflow   Inflow   Occurrence      Volume      Volume       Error
  Node                 Type           MLD      MLD  days hr:min    10^6 ltr    10^6 ltr     Percent
  -------------------------------------------------------------------------------------------------
  WS01000070           JUNCTION      0.00     0.00     0  00:00           0           0       0.000 ltr
  WS01000323           JUNCTION      0.00     0.00     0  00:00           0           0       0.000 ltr
  WS01000533           JUNCTION      0.00     0.00     0  00:00           0           0       0.000 ltr
  WS01005172           JUNCTION      0.00     0.00     0  00:00           0           0       0.000 ltr
  WS01005181           JUNCTION      0.00     0.00     0  00:00           0           0       0.000 ltr
  WS01009841           JUNCTION      0.00     0.00     0  00:00           0           0       0.000 ltr
  WS02000078           JUNCTION      0.00     0.00     0  00:00           0           0       0.000 ltr
  WS02000112           JUNCTION      0.00     0.00     0  00:00           0           0       0.000 ltr
  WS02000136           JUNCTION      0.00     0.00     0  00:00           0           0       0.000 ltr
  WS02004053           JUNCTION      0.00     0.00     0  00:00           0           0       0.000 ltr
  WS02004401           JUNCTION      0.05    10.80     0  03:00      0.0086       0.549       5.366
  WS02005192           JUNCTION      3.97     3.97     0  03:01       0.223       0.223       1.046
  WS02005193           JUNCTION      0.09     4.16     0  03:01       0.014        0.25       2.746
  WS02005196           JUNCTION      0.12     4.07     0  03:01      0.0183       0.239       2.593
  WS02006109           JUNCTION      0.08     6.07     0  03:01      0.0129       0.451       5.697
  WS02006110           JUNCTION      0.08     6.14     0  03:01      0.0126       0.441       5.927
  WS02006111           JUNCTION      0.24    10.33     0  03:01      0.0352       0.597       3.591
  WS02006112           JUNCTION      0.18    10.48     0  03:00      0.0263       0.601       5.771
  WS02006113           JUNCTION      4.09    10.14     0  03:01       0.235       0.619       3.998
  WS02006115           JUNCTION      0.08    10.56     0  03:00      0.0129       0.584       6.945
  WS02006116           JUNCTION      0.24    10.75     0  03:00      0.0347       0.584       6.375
  WS02006183           JUNCTION      0.00     0.00     0  00:00           0           0       0.000 ltr
  WS02006228           JUNCTION      6.63     6.63     0  03:02       0.378       0.534       3.532
  WS02006229           JUNCTION      0.13     4.71     0  02:00      0.0193       0.259       6.667
  WS02006230           JUNCTION      0.07     4.68     0  02:00      0.0111       0.269      10.281
  WS02006231           JUNCTION      0.13     4.21     0  01:55      0.0197       0.277       5.769
  WS02006232           JUNCTION      2.84     5.49     0  01:55       0.158       0.413       3.881
  WS02006234           JUNCTION      0.14     5.58     0  01:55      0.0208       0.405       3.546
  WS02006235           JUNCTION      0.14     5.63     0  01:55      0.0215       0.401       2.030
  WS02006238           JUNCTION      0.15     5.54     0  01:55      0.0226       0.402       2.567
  WS02006239           JUNCTION      0.11     5.59     0  01:55      0.0167       0.401       3.962
  WS02006242           JUNCTION      0.08     5.45     0  02:02      0.0124       0.401       4.802
  WS02006240           JUNCTION      0.06     5.53     0  01:55     0.00952       0.398       4.303
  WS02006243           JUNCTION      0.17     5.52     0  02:02      0.0259       0.408       4.408
  WS02006245           JUNCTION      0.07     5.57     0  02:06      0.0109       0.397       3.443
  WS02006247           JUNCTION      2.77     7.37     0  03:01       0.164       0.527       2.200
  WS02006248           JUNCTION      0.12    13.16     0  03:01      0.0185       0.763       1.376
  WS02006249           JUNCTION      0.19     5.73     0  03:01      0.0275       0.365       3.999
  WS02006251           JUNCTION      1.32     5.56     0  03:01      0.0735       0.341       4.211
  WS02006253           JUNCTION      0.11     4.26     0  03:01      0.0166       0.266       2.630
  WS02618401           JUNCTION      0.00     0.00     0  00:00           0           0       0.000 ltr
  WSA1649              JUNCTION      0.00     0.00     0  00:00           0           0       0.000 ltr
  outfall-5            OUTFALL       0.00    13.17     0  03:01           0       0.644       0.000
  outfall-14           OUTFALL       0.00    10.80     0  03:01           0       0.515       0.000
  outfall-16           OUTFALL       0.00     0.00     0  00:00           0           0       0.000 ltr
  CC-storage           STORAGE      13.29    13.29     0  03:01       0.914       0.914       0.006
  
  
  **********************
  Node Surcharge Summary
  **********************
  
  Surcharging occurs when water rises above the top of the highest conduit.
  ---------------------------------------------------------------------
                                               Max. Height   Min. Depth
                                   Hours       Above Crown    Below Rim
  Node                 Type      Surcharged         Meters       Meters
  ---------------------------------------------------------------------
  WS01000070           JUNCTION        3.83          0.000        0.000
  WS01000323           JUNCTION        3.83          0.000        0.000
  WS01000533           JUNCTION        3.83          0.000        2.147
  WS01005172           JUNCTION        3.83          0.000        0.000
  WS01005181           JUNCTION        3.83          0.000        0.000
  WS01009841           JUNCTION        3.83          0.000        0.000
  WS02000078           JUNCTION        3.83          0.000        0.000
  WS02000112           JUNCTION        3.83          0.000        0.000
  WS02000136           JUNCTION        3.83          0.000        0.000
  WS02004053           JUNCTION        3.83          0.000        0.000
  WS02006109           JUNCTION        2.18          0.893        0.945
  WS02006110           JUNCTION        2.18          0.912        0.933
  WS02006111           JUNCTION        2.20          0.928        0.949
  WS02006112           JUNCTION        2.42          1.186        0.497
  WS02006113           JUNCTION        2.19          0.921        1.012
  WS02006115           JUNCTION        2.45          1.204        1.095
  WS02006116           JUNCTION        2.53          1.263        1.087
  WS02006183           JUNCTION        3.83          0.000        0.000
  WS02006228           JUNCTION        2.16          0.863        1.368
  WS02006229           JUNCTION        2.14          0.822        1.632
  WS02006231           JUNCTION        2.07          0.711        0.832
  WS02006232           JUNCTION        1.99          0.581        0.908
  WS02006234           JUNCTION        1.92          0.451        0.806
  WS02006235           JUNCTION        1.91          0.441        0.853
  WS02006238           JUNCTION        1.90          0.431        1.003
  WS02006239           JUNCTION        1.88          0.400        0.929
  WS02006242           JUNCTION        1.84          0.308        0.541
  WS02006240           JUNCTION        1.84          0.319        1.084
  WS02006243           JUNCTION        1.77          0.187        0.593
  WS02006245           JUNCTION        1.75          0.116        0.739
  WS02006247           JUNCTION        1.75          0.095        0.665
  WS02006249           JUNCTION        0.12          0.004        0.384
  WS02618401           JUNCTION        3.83          0.000        0.000
  WSA1649              JUNCTION        3.83          0.000        0.000
  
  
  *********************
  Node Flooding Summary
  *********************
  
  Flooding refers to all water that overflows a node, whether it ponds or not.
  --------------------------------------------------------------------------
                                                             Total   Maximum
                                 Maximum   Time of Max       Flood    Ponded
                        Hours       Rate    Occurrence      Volume     Depth
  Node                 Flooded       MLD   days hr:min    10^6 ltr    Meters
  --------------------------------------------------------------------------
  CC-storage              2.21     13.29      0  03:01       0.755     0.000
  
  
  **********************
  Storage Volume Summary
  **********************
  
  --------------------------------------------------------------------------------------------------
                         Average     Avg  Evap Exfil       Maximum     Max    Time of Max    Maximum
                          Volume    Pcnt  Pcnt  Pcnt        Volume    Pcnt     Occurrence    Outflow
  Storage Unit           1000 m3    Full  Loss  Loss       1000 m3    Full    days hr:min        MLD
  --------------------------------------------------------------------------------------------------
  CC-storage               0.149      94     0     0         0.159     100       0  01:37       0.00
  
  
  ***********************
  Outfall Loading Summary
  ***********************
  
  ---------------------------------------------------------------------------------------------------------------------------------
                         Flow       Avg       Max       Total         Total         Total         Total         Total         Total
                         Freq      Flow      Flow      Volume           COD         NH3-N            TN            TP            SS
  Outfall Node           Pcnt       MLD       MLD    10^6 ltr            kg            kg            kg            kg            kg
  ---------------------------------------------------------------------------------------------------------------------------------
  outfall-5             83.97      9.01     13.17       0.644        85.698         0.000         0.000         0.000         0.000
  outfall-14            83.91      7.21     10.80       0.515        63.188         0.000         0.000         0.000         0.000
  outfall-16             0.00      0.00      0.00       0.000         0.000         0.000         0.000         0.000         0.000
  ---------------------------------------------------------------------------------------------------------------------------------
  System                55.96     16.22     23.96       1.159       148.885         0.000         0.000         0.000         0.000
  
  
  ********************
  Link Flow Summary
  ********************
  
  -----------------------------------------------------------------------------
                                 Maximum  Time of Max   Maximum    Max/    Max/
                                  |Flow|   Occurrence   |Veloc|    Full    Full
  Link                 Type          MLD  days hr:min     m/sec    Flow   Depth
  -----------------------------------------------------------------------------
  WSL2038              CONDUIT      3.97     0  03:01      0.51    0.20    0.75
  WSL2039              CONDUIT      4.17     0  03:01      0.78    0.21    0.83
  WSL2041              CONDUIT      4.08     0  03:01      0.58    0.20    0.79
  WSL2294              CONDUIT      6.07     0  03:01      0.43    0.20    1.00
  WSL2295              CONDUIT      6.14     0  03:01      0.50    0.28    1.00
  WSL2296              CONDUIT     10.33     0  03:00      0.63    0.06    1.00
  WSL2297              CONDUIT     10.48     0  03:00      0.34    0.20    1.00
  WSL2298              CONDUIT     10.14     0  03:01      0.87    0.47    1.00
  WSL2301              CONDUIT     10.56     0  03:00      0.29    0.10    1.00
  WSL2302              CONDUIT     10.75     0  03:00      0.23    0.13    1.00
  WSL2441              CONDUIT      5.99     0  03:01      0.44    0.15    1.00
  WSL2442              CONDUIT      4.61     0  02:00      0.63    0.12    1.00
  WSL2443              CONDUIT      4.08     0  01:55      0.73    0.06    1.00
  WSL2444              CONDUIT      4.21     0  01:55      0.89    0.07    1.00
  WSL2446              CONDUIT      5.44     0  01:55      0.85    0.09    1.00
  WSL2447              CONDUIT      5.49     0  01:55      0.74    0.28    1.00
  WSL2448              CONDUIT      5.38     0  01:55      0.60    0.15    1.00
  WSL2449              CONDUIT      5.48     0  01:55      0.57    0.19    1.00
  WSL2450              CONDUIT      5.47     0  01:55      0.66    0.11    1.00
  WSL2451              CONDUIT      5.37     0  02:02      0.63    0.35    1.00
  WSL2452              CONDUIT      5.36     0  02:02      0.65    0.10    1.00
  WSL2454              CONDUIT      5.50     0  02:06      0.80    0.13    1.00
  WSL2478              CONDUIT      5.63     0  02:06      0.69    0.20    1.00
  WSL2479              CONDUIT      7.38     0  03:01      0.62    0.14    1.00
  WSL2480              CONDUIT      5.74     0  03:02      0.67    0.27    1.00
  WSL2482              CONDUIT      5.58     0  03:01      0.59    0.15    0.95
  WSL2484              CONDUIT      4.31     0  02:08      0.68    0.06    0.81
  WSL2493              CONDUIT      4.59     0  02:00      0.51    0.08    1.00
  8                    CONDUIT     13.17     0  03:01      5.23    0.17    0.28
  19                   CONDUIT      0.00     0  00:00      0.00    0.00    0.00
  17                   CONDUIT     10.80     0  03:01      5.00    0.14    0.25
  CC-Pump-1            PUMP         0.00     0  00:00              0.00
  CC-Pump-2            PUMP         0.00     0  00:00              0.00
  
  
  ***************************
  Flow Classification Summary
  ***************************
  
  -------------------------------------------------------------------------------------
                      Adjusted    ---------- Fraction of Time in Flow Class ---------- 
                       /Actual         Up    Down  Sub   Sup   Up    Down  Norm  Inlet 
  Conduit               Length    Dry  Dry   Dry   Crit  Crit  Crit  Crit  Ltd   Ctrl  
  -------------------------------------------------------------------------------------
  WSL2038                 1.00   0.00  0.00  0.00  1.00  0.00  0.00  0.00  0.01  0.00
  WSL2039                 1.00   0.00  0.00  0.00  1.00  0.00  0.00  0.00  0.00  0.00
  WSL2041                 1.00   0.00  0.00  0.00  1.00  0.00  0.00  0.00  0.31  0.00
  WSL2294                 1.00   0.00  0.00  0.00  1.00  0.00  0.00  0.00  0.00  0.00
  WSL2295                 1.00   0.00  0.00  0.00  1.00  0.00  0.00  0.00  0.00  0.00
  WSL2296                 1.00   0.00  0.00  0.00  1.00  0.00  0.00  0.00  0.17  0.00
  WSL2297                 1.00   0.00  0.00  0.00  1.00  0.00  0.00  0.00  0.00  0.00
  WSL2298                 1.00   0.00  0.00  0.00  0.98  0.02  0.00  0.00  0.00  0.00
  WSL2301                 1.00   0.00  0.00  0.00  1.00  0.00  0.00  0.00  0.04  0.00
  WSL2302                 1.00   0.00  0.00  0.00  1.00  0.00  0.00  0.00  0.01  0.00
  WSL2441                 1.00   0.00  0.00  0.00  1.00  0.00  0.00  0.00  0.00  0.00
  WSL2442                 1.00   0.00  0.00  0.00  1.00  0.00  0.00  0.00  0.17  0.00
  WSL2443                 1.00   0.00  0.00  0.00  1.00  0.00  0.00  0.00  0.31  0.00
  WSL2444                 1.00   0.00  0.00  0.00  0.92  0.08  0.00  0.00  0.24  0.00
  WSL2446                 1.00   0.00  0.00  0.00  0.91  0.09  0.00  0.00  0.03  0.00
  WSL2447                 1.00   0.00  0.00  0.00  1.00  0.00  0.00  0.00  0.00  0.00
  WSL2448                 1.00   0.00  0.00  0.00  1.00  0.00  0.00  0.00  0.00  0.00
  WSL2449                 1.00   0.00  0.00  0.00  1.00  0.00  0.00  0.00  0.03  0.00
  WSL2450                 1.00   0.00  0.00  0.00  1.00  0.00  0.00  0.00  0.43  0.00
  WSL2451                 1.00   0.00  0.00  0.00  1.00  0.00  0.00  0.00  0.00  0.00
  WSL2452                 1.00   0.00  0.00  0.00  1.00  0.00  0.00  0.00  0.44  0.00
  WSL2454                 1.00   0.00  0.00  0.00  1.00  0.00  0.00  0.00  0.02  0.00
  WSL2478                 1.00   0.00  0.00  0.00  1.00  0.00  0.00  0.00  0.00  0.00
  WSL2479                 1.00   0.00  0.00  0.00  1.00  0.00  0.00  0.00  0.48  0.00
  WSL2480                 1.00   0.00  0.00  0.00  1.00  0.00  0.00  0.00  0.00  0.00
  WSL2482                 1.00   0.00  0.00  0.00  1.00  0.00  0.00  0.00  0.49  0.00
  WSL2484                 1.00   0.00  0.00  0.00  1.00  0.00  0.00  0.00  0.49  0.00
  WSL2493                 1.00   0.00  0.00  0.00  1.00  0.00  0.00  0.00  0.05  0.00
  8                       1.00   0.16  0.00  0.00  0.00  0.84  0.00  0.00  0.01  0.00
  19                      1.00   1.00  0.00  0.00  0.00  0.00  0.00  0.00  0.00  0.00
  17                      1.00   0.16  0.00  0.00  0.00  0.84  0.00  0.00  0.00  0.00
  
  
  *************************
  Conduit Surcharge Summary
  *************************
  
  ----------------------------------------------------------------------------
                                                           Hours        Hours 
                         --------- Hours Full --------   Above Full   Capacity
  Conduit                Both Ends  Upstream  Dnstream   Normal Flow   Limited
  ----------------------------------------------------------------------------
  WSL2294                     2.18      2.18      2.18      0.01         0.01
  WSL2295                     2.18      2.18      2.19      0.01         0.01
  WSL2296                     2.20      2.20      2.74      0.01         0.01
  WSL2297                     2.42      2.42      2.45      0.01         0.01
  WSL2298                     2.19      2.19      2.20      0.01         0.01
  WSL2301                     2.45      2.45      2.53      0.01         0.01
  WSL2302                     2.53      2.53      2.60      0.01         0.01
  WSL2441                     2.16      2.16      2.18      0.01         0.01
  WSL2442                     2.16      2.16      2.19      0.01         0.01
  WSL2443                     2.07      2.07      2.16      0.01         0.01
  WSL2444                     1.99      1.99      2.07      0.01         0.01
  WSL2446                     1.92      1.92      1.99      0.01         0.01
  WSL2447                     1.91      1.91      1.92      0.01         0.01
  WSL2448                     1.90      1.90      1.91      0.01         0.01
  WSL2449                     1.88      1.88      1.90      0.01         0.01
  WSL2450                     1.84      1.84      1.88      0.01         0.01
  WSL2451                     1.84      1.84      1.84      0.01         0.01
  WSL2452                     1.77      1.77      1.84      0.01         0.01
  WSL2454                     1.75      1.75      1.77      0.01         0.01
  WSL2478                     1.75      1.75      1.75      0.01         0.01
  WSL2479                     0.44      0.44      1.75      0.01         0.01
  WSL2480                     0.12      0.12      0.44      0.01         0.01
  WSL2482                     0.01      0.01      0.12      0.01         0.01
  WSL2493                     2.14      2.14      2.16      0.01         0.01
  
  
  ***************
  Pumping Summary
  ***************
  
  ---------------------------------------------------------------------------------------------------------
                                                  Min       Avg       Max     Total     Power    % Time Off
                        Percent   Number of      Flow      Flow      Flow    Volume     Usage    Pump Curve
  Pump                 Utilized   Start-Ups       MLD       MLD       MLD  10^6 ltr     Kw-hr    Low   High
  ---------------------------------------------------------------------------------------------------------
  CC-Pump-1                0.00           0      0.00      0.00      0.00     0.000      0.00    0.0    0.0
  CC-Pump-2                0.00           0      0.00      0.00      0.00     0.000      0.00    0.0    0.0
  
  
  ***************************
  Link Pollutant Load Summary
  ***************************
  
  ------------------------------------------------------------------------------------------
                                 COD         NH3-N            TN            TP            SS
  Link                            kg            kg            kg            kg            kg
  ------------------------------------------------------------------------------------------
  WSL2038                     27.322         0.000         0.000         0.000         0.000
  WSL2039                     32.376         0.000         0.000         0.000         0.000
  WSL2041                     30.073         0.000         0.000         0.000         0.000
  WSL2294                     81.813         0.000         0.000         0.000         0.000
  WSL2295                     73.949         0.000         0.000         0.000         0.000
  WSL2296                     73.586         0.000         0.000         0.000         0.000
  WSL2297                     71.371         0.000         0.000         0.000         0.000
  WSL2298                     70.926         0.000         0.000         0.000         0.000
  WSL2301                     68.836         0.000         0.000         0.000         0.000
  WSL2302                     68.581         0.000         0.000         0.000         0.000
  WSL2441                     88.660         0.000         0.000         0.000         0.000
  WSL2442                     50.188         0.000         0.000         0.000         0.000
  WSL2443                     47.864         0.000         0.000         0.000         0.000
  WSL2444                     46.710         0.000         0.000         0.000         0.000
  WSL2446                     45.927         0.000         0.000         0.000         0.000
  WSL2447                     45.314         0.000         0.000         0.000         0.000
  WSL2448                     45.122         0.000         0.000         0.000         0.000
  WSL2449                     44.550         0.000         0.000         0.000         0.000
  WSL2450                     44.030         0.000         0.000         0.000         0.000
  WSL2451                     43.735         0.000         0.000         0.000         0.000
  WSL2452                     43.909         0.000         0.000         0.000         0.000
  WSL2454                     43.617         0.000         0.000         0.000         0.000
  WSL2478                     43.479         0.000         0.000         0.000         0.000
  WSL2479                     57.863         0.000         0.000         0.000         0.000
  WSL2480                     53.901         0.000         0.000         0.000         0.000
  WSL2482                     50.130         0.000         0.000         0.000         0.000
  WSL2484                     35.376         0.000         0.000         0.000         0.000
  WSL2493                     50.474         0.000         0.000         0.000         0.000
  8                           85.698         0.000         0.000         0.000         0.000
  19                           0.000         0.000         0.000         0.000         0.000
  17                          63.188         0.000         0.000         0.000         0.000
  CC-Pump-1                    0.000         0.000         0.000         0.000         0.000
  CC-Pump-2                    0.000         0.000         0.000         0.000         0.000
  

  Analysis begun on:  Sun Aug 18 10:00:00 2019
  Analysis ended on:  Sun Aug 18 10:00:01 2019
  Total elapsed time: 00:00:01