
  EPA STORM WATER MANAGEMENT MODEL - VERSION 5.1 (Build 5.2.0.dev5)
  --------------------------------------------------------------

  
  *********************************************************
  NOTE: The summary statistics displayed in this report are
  based on results found at every computational time step,  
  not just on results from each reporting time step.
  *********************************************************
  
  ****************
  Analysis Options
  ****************
  Flow Units ............... MLD
  Process Models:
    Rainfall/Runoff ........ YES
    RDII ................... NO
    Snowmelt ............... NO
    Groundwater ............ NO
    Flow Routing ........... YES
    Ponding Allowed ........ NO
    Water Quality .......... YES
  Infiltration Method ...... GREEN_AMPT
  Flow Routing Method ...... DYNWAVE
  Surcharge Method ......... EXTRAN
  Starting Date ............ 08/28/2015 08:00:00
  Ending Date .............. 08/28/2015 11:50:00
  Antecedent Dry Days ...... 4.0
  Report Time Step ......... 00:01:00
  Wet Time Step ............ 00:01:00
  Dry Time Step ............ 00:01:00
  Routing Time Step ........ 5.00 sec
  Variable Time Step ....... YES
  Maximum Trials ........... 8
  Number of Threads ........ 1
  Head Tolerance ........... 0.001500 m
  
  
  **************************        Volume         Depth
  Runoff Quantity Continuity     hectare-m            mm
  **************************     ---------       -------
  Total Precipitation ......         0.709        11.460
  Evaporation Loss .........         0.000         0.000
  Infiltration Loss ........         0.398         6.440
  Surface Runoff ...........         0.124         2.004
  Final Storage ............         0.187         3.017
  Continuity Error (%) .....        -0.009
  
  
  **************************           COD         NH3-N            TN            TP            SS
  Runoff Quality Continuity             kg            kg            kg            kg            kg
  **************************    ----------    ----------    ----------    ----------    ----------
  Initial Buildup ..........      2504.640         0.000         0.000         0.000         0.000
  Surface Buildup ..........        20.012         0.000         0.000         0.000         0.000
  Wet Deposition ...........         0.000         0.000         0.000         0.000         0.000
  Sweeping Removal .........         0.000         0.000         0.000         0.000         0.000
  Infiltration Loss ........        37.350         0.000         0.000         0.000         0.000
  BMP Removal ..............         0.000         0.000         0.000         0.000         0.000
  Surface Runoff ...........       119.105         0.000         0.000         0.000         0.000
  Remaining Buildup ........      2367.799         0.000         0.000         0.000         0.000
  Continuity Error (%) .....         0.016         0.000         0.000         0.000         0.000
  
  
  **************************        Volume        Volume
  Flow Routing Continuity        hectare-m      10^6 ltr
  **************************     ---------     ---------
  Dry Weather Inflow .......         0.000         0.000
  Wet Weather Inflow .......         0.124         1.237
  Groundwater Inflow .......         0.000         0.000
  RDII Inflow ..............         0.000         0.000
  External Inflow ..........         0.082         0.822
  External Outflow .........         0.081         0.811
  Flooding Loss ............         0.058         0.584
  Evaporation Loss .........         0.000         0.000
  Exfiltration Loss ........         0.000         0.000
  Initial Stored Volume ....         0.000         0.000
  Final Stored Volume ......         0.062         0.618
  Continuity Error (%) .....         2.167
  
  
  **************************           COD         NH3-N            TN            TP            SS
  Quality Routing Continuity            kg            kg            kg            kg            kg
  **************************    ----------    ----------    ----------    ----------    ----------
  Dry Weather Inflow .......         0.000         0.000         0.000         0.000         0.000
  Wet Weather Inflow .......       118.849         0.000         0.000         0.000         0.000
  Groundwater Inflow .......         0.000         0.000         0.000         0.000         0.000
  RDII Inflow ..............         0.000         0.000         0.000         0.000         0.000
  External Inflow ..........       137.266         0.000         0.000         0.000         0.000
  External Outflow .........        97.909         0.000         0.000         0.000         0.000
  Flooding Loss ............        67.871         0.000         0.000         0.000         0.000
  Exfiltration Loss ........         0.000         0.000         0.000         0.000         0.000
  Mass Reacted .............         0.000         0.000         0.000         0.000         0.000
  Initial Stored Mass ......         0.000         0.000         0.000         0.000         0.000
  Final Stored Mass ........        82.717         0.000         0.000         0.000         0.000
  Continuity Error (%) .....         2.974         0.000         0.000         0.000         0.000
  
  
  *************************
  Highest Continuity Errors
  *************************
  Node WS02006230 (9.97%)
  Node WS02006115 (9.01%)
  Node WS02006116 (8.36%)
  Node WS02006112 (7.49%)
  Node WS02006110 (7.34%)
  
  
  ***************************
  Time-Step Critical Elements
  ***************************
  Link 8 (79.93%)
  Link WSL2448 (15.84%)
  
  
  ********************************
  Highest Flow Instability Indexes
  ********************************
  Link WSL2302 (4)
  Link WSL2301 (4)
  Link WSL2297 (4)
  Link WSL2296 (3)
  Link WSL2298 (2)
  
  
  *************************
  Routing Time Step Summary
  *************************
  Minimum Time Step           :     0.18 sec
  Average Time Step           :     1.43 sec
  Maximum Time Step           :     5.00 sec
  Percent in Steady State     :     0.00
  Average Iterations per Step :     2.06
  Percent Not Converging      :     0.23
  
  
  ***************************
  Subcatchment Runoff Summary
  ***************************
  
  ------------------------------------------------------------------------------------------------------------------------------
                            Total      Total      Total      Total     Imperv       Perv      Total       Total     Peak  Runoff
                           Precip      Runon       Evap      Infil     Runoff     Runoff     Runoff      Runoff   Runoff   Coeff
  Subcatchment                 mm         mm         mm         mm         mm         mm         mm    10^6 ltr      MLD
  ------------------------------------------------------------------------------------------------------------------------------
  1                         11.46       9.39       0.00       7.40       4.91       2.66       7.57        0.09     1.73   0.363
  2                         11.46       0.00       0.00       6.19       2.67       0.44       3.11        0.10     1.98   0.271
  3                         11.46       0.00       0.00       6.20       2.62       0.37       2.98        0.15     2.86   0.260
  35                        11.46       0.00       0.00       6.19       2.68       0.46       3.14        0.10     1.81   0.274
  36                        11.46       5.86       0.00       7.13       3.89       0.97       4.86        0.29     5.32   0.281
  40                        11.46       1.62       0.00       6.48       3.02       0.60       3.61        0.14     2.66   0.276
  41                        11.46       0.00       0.00       6.17       2.72       0.56       3.28        0.06     1.22   0.286
  42                        11.46       0.00       0.00       6.17       2.70       0.52       3.23        0.07     1.41   0.282
  43                        11.46       0.00       0.00       6.06       2.81       1.10       3.91        0.01     0.29   0.341
  44                        11.46      80.96       0.00      11.57      22.44      39.91      62.35        0.23     4.27   0.675
  45                        11.46       0.00       0.00       6.14       2.76       0.73       3.50        0.04     0.71   0.305
  46                        11.46       4.86       0.00       6.94       3.82       1.32       5.14        0.11     2.09   0.315
  47                        11.46       0.00       0.00       6.14       2.76       0.71       3.47        0.04     0.76   0.303
  48                        11.46       2.43       0.00       6.56       3.30       1.03       4.33        0.07     1.32   0.311
  55                        11.46       3.61       0.00       6.69       3.63       1.61       5.23        0.04     0.86   0.347
  56                        11.46       5.36       0.00       7.00       3.93       1.40       5.33        0.11     2.17   0.317
  57                        11.46       0.00       0.00       6.20       2.62       0.37       2.99        0.15     2.81   0.261
  59                        11.46       0.00       0.00       6.12       2.77       0.80       3.57        0.03     0.60   0.312
  60                        11.46       7.93       0.00       7.20       4.69       3.27       7.96        0.04     0.82   0.411
  61                        11.46       0.00       0.00       6.23       2.39       0.20       2.60        0.47     8.68   0.227
  64                        11.46       0.00       0.00       6.14       2.75       0.69       3.44        0.04     0.81   0.300
  
  
  ****************************
  Subcatchment Washoff Summary
  ****************************
  
  ------------------------------------------------------------------------------------------
                                 COD         NH3-N            TN            TP            SS
  Subcatchment                    kg            kg            kg            kg            kg
  ------------------------------------------------------------------------------------------
  1                            7.164         0.000         0.000         0.000         0.000
  2                            0.000         0.000         0.000         0.000         0.000
  3                            0.000         0.000         0.000         0.000         0.000
  35                           8.976         0.000         0.000         0.000         0.000
  36                          50.880         0.000         0.000         0.000         0.000
  40                          16.633         0.000         0.000         0.000         0.000
  41                           6.230         0.000         0.000         0.000         0.000
  42                           7.110         0.000         0.000         0.000         0.000
  43                           1.613         0.000         0.000         0.000         0.000
  44                          53.328         0.000         0.000         0.000         0.000
  45                           3.723         0.000         0.000         0.000         0.000
  46                          19.463         0.000         0.000         0.000         0.000
  47                           3.955         0.000         0.000         0.000         0.000
  48                           9.566         0.000         0.000         0.000         0.000
  55                           7.284         0.000         0.000         0.000         0.000
  56                          21.525         0.000         0.000         0.000         0.000
  57                          13.532         0.000         0.000         0.000         0.000
  59                           3.160         0.000         0.000         0.000         0.000
  60                           9.770         0.000         0.000         0.000         0.000
  61                          37.797         0.000         0.000         0.000         0.000
  64                           4.213         0.000         0.000         0.000         0.000
  ------------------------------------------------------------------------------------------
  System                     285.922         0.000         0.000         0.000         0.000
  
  
  ******************
  Node Depth Summary
  ******************
  
  ---------------------------------------------------------------------------------
                                 Average  Maximum  Maximum  Time of Max    Reported
                                   Depth    Depth      HGL   Occurrence   Max Depth
  Node                 Type       Meters   Meters   Meters  days hr:min      Meters
  ---------------------------------------------------------------------------------
  WS01000070           JUNCTION     0.00     0.00     0.00     0  00:00        0.00
  WS01000323           JUNCTION     0.00     0.00     0.00     0  00:00        0.00
  WS01000533           JUNCTION     0.00     0.00     6.86     0  00:00        0.00
  WS01005172           JUNCTION     0.00     0.00     0.00     0  00:00        0.00
  WS01005181           JUNCTION     0.00     0.00     0.00     0  00:00        0.00
  WS01009841           JUNCTION     0.00     0.00     0.00     0  00:00        0.00
  WS02000078           JUNCTION     0.00     0.00     0.00     0  00:00        0.00
  WS02000112           JUNCTION     0.00     0.00     0.00     0  00:00        0.00
  WS02000136           JUNCTION     0.00     0.00     0.00     0  00:00        0.00
  WS02004053           JUNCTION     0.00     0.00     0.00     0  00:00        0.00
  WS02004401           JUNCTION     2.04     2.29     8.29     0  03:01        2.29
  WS02005192           JUNCTION     0.34     0.44     8.31     0  02:15        0.42
  WS02005193           JUNCTION     0.38     0.48     8.30     0  02:15        0.48
  WS02005196           JUNCTION     0.36     0.46     8.31     0  02:16        0.45
  WS02006109           JUNCTION     1.44     1.67     8.29     0  03:00        1.67
  WS02006110           JUNCTION     1.46     1.69     8.29     0  03:00        1.69
  WS02006111           JUNCTION     1.47     1.71     8.29     0  03:00        1.71
  WS02006112           JUNCTION     1.92     2.17     8.29     0  03:00        2.17
  WS02006113           JUNCTION     1.47     1.70     8.29     0  03:00        1.70
  WS02006115           JUNCTION     1.94     2.19     8.29     0  03:00        2.19
  WS02006116           JUNCTION     2.00     2.25     8.29     0  03:00        2.25
  WS02006183           JUNCTION     0.00     0.00     0.00     0  00:00        0.00
  WS02006228           JUNCTION     1.41     1.64     8.29     0  03:00        1.64
  WS02006229           JUNCTION     1.37     1.60     8.29     0  03:00        1.60
  WS02006230           JUNCTION     1.32     1.54     8.29     0  03:00        1.54
  WS02006231           JUNCTION     1.18     1.39     8.29     0  03:00        1.39
  WS02006232           JUNCTION     1.06     1.26     8.29     0  03:00        1.26
  WS02006234           JUNCTION     0.95     1.13     8.29     0  03:00        1.13
  WS02006235           JUNCTION     0.94     1.12     8.29     0  03:00        1.12
  WS02006238           JUNCTION     0.93     1.11     8.29     0  03:00        1.11
  WS02006239           JUNCTION     0.91     1.08     8.29     0  03:00        1.08
  WS02006242           JUNCTION     0.83     0.99     8.29     0  03:00        0.99
  WS02006240           JUNCTION     0.83     1.00     8.29     0  03:00        1.00
  WS02006243           JUNCTION     0.72     0.87     8.29     0  03:00        0.87
  WS02006245           JUNCTION     0.66     0.80     8.29     0  03:00        0.80
  WS02006247           JUNCTION     0.64     0.78     8.29     0  03:00        0.78
  WS02006248           JUNCTION     0.57     0.70     8.29     0  03:01        0.70
  WS02006249           JUNCTION     0.57     0.69     8.29     0  03:01        0.69
  WS02006251           JUNCTION     0.50     0.62     8.29     0  02:16        0.62
  WS02006253           JUNCTION     0.39     0.50     8.30     0  02:16        0.49
  WS02618401           JUNCTION     0.00     0.00     0.00     0  00:00        0.00
  WSA1649              JUNCTION     0.00     0.00     0.00     0  00:00        0.00
  outfall-5            OUTFALL      0.07     0.10     7.76     0  03:01        0.10
  outfall-14           OUTFALL      0.06     0.09     7.75     0  03:01        0.09
  outfall-16           OUTFALL      0.00     0.00     8.39     0  00:00        0.00
  CC-storage           STORAGE      5.22     5.63     8.81     0  01:40        5.63
  
  
  *******************
  Node Inflow Summary
  *******************
  
  -------------------------------------------------------------------------------------------------
                                  Maximum  Maximum                  Lateral       Total        Flow
                                  Lateral    Total  Time of Max      Inflow      Inflow     Balance
                                   Inflow   Inflow   Occurrence      Volume      Volume       Error
  Node                 Type           MLD      MLD  days hr:min    10^6 ltr    10^6 ltr     Percent
  -------------------------------------------------------------------------------------------------
  WS01000070           JUNCTION      0.00     0.00     0  00:00           0           0       0.000 ltr
  WS01000323           JUNCTION      0.00     0.00     0  00:00           0           0       0.000 ltr
  WS01000533           JUNCTION      0.00     0.00     0  00:00           0           0       0.000 ltr
  WS01005172           JUNCTION      0.00     0.00     0  00:00           0           0       0.000 ltr
  WS01005181           JUNCTION      0.00     0.00     0  00:00           0           0       0.000 ltr
  WS01009841           JUNCTION      0.00     0.00     0  00:00           0           0       0.000 ltr
  WS02000078           JUNCTION      0.00     0.00     0  00:00           0           0       0.000 ltr
  WS02000112           JUNCTION      0.00     0.00     0  00:00           0           0       0.000 ltr
  WS02000136           JUNCTION      0.00     0.00     0  00:00           0           0       0.000 ltr
  WS02004053           JUNCTION      0.00     0.00     0  00:00           0           0       0.000 ltr
  WS02004401           JUNCTION      0.05     7.83     0  03:01      0.0086       0.389       7.711
  WS02005192           JUNCTION      2.90     2.90     0  03:01       0.166       0.166       1.369
  WS02005193           JUNCTION      0.09     3.09     0  03:01       0.014       0.194       3.484
  WS02005196           JUNCTION      0.12     3.23     0  02:16      0.0183       0.183       3.335
  WS02006109           JUNCTION      0.08     4.15     0  03:01      0.0129       0.351       7.550
  WS02006110           JUNCTION      0.08     4.23     0  03:01      0.0126        0.34       7.918
  WS02006111           JUNCTION      0.24     7.35     0  03:01      0.0352        0.44       5.023
  WS02006112           JUNCTION      0.18     7.50     0  03:01      0.0263       0.442       8.095
  WS02006113           JUNCTION      3.00     7.15     0  03:01       0.177       0.461       5.509
  WS02006115           JUNCTION      0.08     7.58     0  03:01      0.0129       0.425       9.906
  WS02006116           JUNCTION      0.24     7.77     0  03:01      0.0347       0.424       9.123
  WS02006183           JUNCTION      0.00     0.00     0  00:00           0           0       0.000 ltr
  WS02006228           JUNCTION      4.43     4.43     0  03:02       0.257       0.415       4.656
  WS02006229           JUNCTION      0.13     3.76     0  01:59      0.0193        0.24       7.316
  WS02006230           JUNCTION      0.07     3.78     0  01:59      0.0111        0.25      11.080
  WS02006231           JUNCTION      0.13     4.08     0  01:55      0.0197       0.257       6.332
  WS02006232           JUNCTION      2.06     5.04     0  01:55       0.118       0.354       4.588
  WS02006234           JUNCTION      0.14     4.84     0  01:58      0.0208       0.347       4.167
  WS02006235           JUNCTION      0.14     5.31     0  01:59      0.0215       0.342       2.478
  WS02006238           JUNCTION      0.15     5.31     0  02:01      0.0226       0.342       3.135
  WS02006239           JUNCTION      0.11     5.10     0  02:00      0.0167        0.34       4.738
  WS02006242           JUNCTION      0.08     5.09     0  02:14      0.0124       0.339       5.765
  WS02006240           JUNCTION      0.06     5.01     0  02:14     0.00952       0.336       5.153
  WS02006243           JUNCTION      0.17     5.23     0  02:14      0.0259       0.344       5.262
  WS02006245           JUNCTION      0.07     5.34     0  02:14      0.0109       0.332       4.148
  WS02006247           JUNCTION      1.87     6.45     0  02:14       0.115       0.414       2.824
  WS02006248           JUNCTION      0.12     9.71     0  03:01      0.0185       0.574       1.823
  WS02006249           JUNCTION      0.19     4.93     0  02:14      0.0275       0.288       5.087
  WS02006251           JUNCTION      0.91     4.46     0  02:14      0.0528       0.264       5.427
  WS02006253           JUNCTION      0.11     3.68     0  02:14      0.0166        0.21       3.286
  WS02618401           JUNCTION      0.00     0.00     0  00:00           0           0       0.000 ltr
  WSA1649              JUNCTION      0.00     0.00     0  00:00           0           0       0.000 ltr
  outfall-5            OUTFALL       0.00     9.71     0  03:01           0       0.457       0.000
  outfall-14           OUTFALL       0.00     7.82     0  03:01           0       0.354       0.000
  outfall-16           OUTFALL       0.00     0.00     0  00:00           0           0       0.000 ltr
  CC-storage           STORAGE      10.18    10.18     0  03:00       0.744       0.744       0.008
  
  
  **********************
  Node Surcharge Summary
  **********************
  
  Surcharging occurs when water rises above the top of the highest conduit.
  ---------------------------------------------------------------------
                                               Max. Height   Min. Depth
                                   Hours       Above Crown    Below Rim
  Node                 Type      Surcharged         Meters       Meters
  ---------------------------------------------------------------------
  WS01000070           JUNCTION        3.83          0.000        0.000
  WS01000323           JUNCTION        3.83          0.000        0.000
  WS01000533           JUNCTION        3.83          0.000        2.147
  WS01005172           JUNCTION        3.83          0.000        0.000
  WS01005181           JUNCTION        3.83          0.000        0.000
  WS01009841           JUNCTION        3.83          0.000        0.000
  WS02000078           JUNCTION        3.83          0.000        0.000
  WS02000112           JUNCTION        3.83          0.000        0.000
  WS02000136           JUNCTION        3.83          0.000        0.000
  WS02004053           JUNCTION        3.83          0.000        0.000
  WS02006109           JUNCTION        2.12          0.873        0.965
  WS02006110           JUNCTION        2.13          0.893        0.952
  WS02006111           JUNCTION        2.15          0.911        0.966
  WS02006112           JUNCTION        2.40          1.170        0.513
  WS02006113           JUNCTION        2.14          0.903        1.030
  WS02006115           JUNCTION        2.44          1.188        1.111
  WS02006116           JUNCTION        2.52          1.247        1.103
  WS02006183           JUNCTION        3.83          0.000        0.000
  WS02006228           JUNCTION        2.10          0.843        1.388
  WS02006229           JUNCTION        2.07          0.803        1.651
  WS02006231           JUNCTION        2.00          0.691        0.852
  WS02006232           JUNCTION        1.90          0.561        0.928
  WS02006234           JUNCTION        1.81          0.431        0.826
  WS02006235           JUNCTION        1.80          0.421        0.873
  WS02006238           JUNCTION        1.80          0.411        1.023
  WS02006239           JUNCTION        1.77          0.381        0.948
  WS02006242           JUNCTION        1.72          0.290        0.559
  WS02006240           JUNCTION        1.73          0.300        1.103
  WS02006243           JUNCTION        1.64          0.169        0.611
  WS02006245           JUNCTION        1.62          0.099        0.756
  WS02006247           JUNCTION        1.61          0.078        0.682
  WS02618401           JUNCTION        3.83          0.000        0.000
  WSA1649              JUNCTION        3.83          0.000        0.000
  
  
  *********************
  Node Flooding Summary
  *********************
  
  Flooding refers to all water that overflows a node, whether it ponds or not.
  --------------------------------------------------------------------------
                                                             Total   Maximum
                                 Maximum   Time of Max       Flood    Ponded
                        Hours       Rate    Occurrence      Volume     Depth
  Node                 Flooded       MLD   days hr:min    10^6 ltr    Meters
  --------------------------------------------------------------------------
  CC-storage              2.16     10.18      0  03:00       0.585     0.000
  
  
  **********************
  Storage Volume Summary
  **********************
  
  --------------------------------------------------------------------------------------------------
                         Average     Avg  Evap Exfil       Maximum     Max    Time of Max    Maximum
                          Volume    Pcnt  Pcnt  Pcnt        Volume    Pcnt     Occurrence    Outflow
  Storage Unit           1000 m3    Full  Loss  Loss       1000 m3    Full    days hr:min        MLD
  --------------------------------------------------------------------------------------------------
  CC-storage               0.147      93     0     0         0.159     100       0  01:40       0.00
  
  
  ***********************
  Outfall Loading Summary
  ***********************
  
  ---------------------------------------------------------------------------------------------------------------------------------
                         Flow       Avg       Max       Total         Total         Total         Total         Total         Total
                         Freq      Flow      Flow      Volume           COD         NH3-N            TN            TP            SS
  Outfall Node           Pcnt       MLD       MLD    10^6 ltr            kg            kg            kg            kg            kg
  ---------------------------------------------------------------------------------------------------------------------------------
  outfall-5             80.80      6.93      9.71       0.457        54.488         0.000         0.000         0.000         0.000
  outfall-14            80.84      5.37      7.82       0.354        43.427         0.000         0.000         0.000         0.000
  outfall-16             0.00      0.00      0.00       0.000         0.000         0.000         0.000         0.000         0.000
  ---------------------------------------------------------------------------------------------------------------------------------
  System                53.88     12.30     17.52       0.811        97.915         0.000         0.000         0.000         0.000
  
  
  ********************
  Link Flow Summary
  ********************
  
  -----------------------------------------------------------------------------
                                 Maximum  Time of Max   Maximum    Max/    Max/
                                  |Flow|   Occurrence   |Veloc|    Full    Full
  Link                 Type          MLD  days hr:min     m/sec    Flow   Depth
  -----------------------------------------------------------------------------
  WSL2038              CONDUIT      3.12     0  02:16      0.48    0.16    0.74
  WSL2039              CONDUIT      3.16     0  02:16      0.72    0.16    0.81
  WSL2041              CONDUIT      3.01     0  03:01      0.53    0.15    0.77
  WSL2294              CONDUIT      4.15     0  03:01      0.43    0.14    1.00
  WSL2295              CONDUIT      4.23     0  03:01      0.50    0.19    1.00
  WSL2296              CONDUIT      7.35     0  03:01      0.63    0.04    1.00
  WSL2297              CONDUIT      7.50     0  03:01      0.34    0.14    1.00
  WSL2298              CONDUIT      7.16     0  03:01      0.87    0.33    1.00
  WSL2301              CONDUIT      7.58     0  03:01      0.29    0.07    1.00
  WSL2302              CONDUIT      7.77     0  03:01      0.23    0.10    1.00
  WSL2441              CONDUIT      4.08     0  03:01      0.44    0.10    1.00
  WSL2442              CONDUIT      3.71     0  01:59      0.63    0.09    1.00
  WSL2443              CONDUIT      3.94     0  01:55      0.73    0.06    1.00
  WSL2444              CONDUIT      4.07     0  01:55      0.88    0.06    1.00
  WSL2446              CONDUIT      4.70     0  01:58      0.84    0.08    1.00
  WSL2447              CONDUIT      5.16     0  01:59      0.70    0.27    1.00
  WSL2448              CONDUIT      5.17     0  02:01      0.57    0.15    1.00
  WSL2449              CONDUIT      4.99     0  02:00      0.55    0.17    1.00
  WSL2450              CONDUIT      4.96     0  02:14      0.63    0.10    1.00
  WSL2451              CONDUIT      5.02     0  02:14      0.60    0.33    1.00
  WSL2452              CONDUIT      5.08     0  02:14      0.62    0.10    1.00
  WSL2454              CONDUIT      5.28     0  02:14      0.76    0.12    1.00
  WSL2478              CONDUIT      5.56     0  02:14      0.65    0.20    1.00
  WSL2479              CONDUIT      6.28     0  02:14      0.59    0.12    1.00
  WSL2480              CONDUIT      4.77     0  02:14      0.63    0.22    0.99
  WSL2482              CONDUIT      4.10     0  03:02      0.55    0.11    0.93
  WSL2484              CONDUIT      3.58     0  02:14      0.65    0.05    0.79
  WSL2493              CONDUIT      3.63     0  01:59      0.51    0.06    1.00
  8                    CONDUIT      9.71     0  03:01      4.80    0.13    0.24
  19                   CONDUIT      0.00     0  00:00      0.00    0.00    0.00
  17                   CONDUIT      7.82     0  03:01      4.55    0.10    0.22
  CC-Pump-1            PUMP         0.00     0  00:00              0.00
  CC-Pump-2            PUMP         0.00     0  00:00              0.00
  
  
  ***************************
  Flow Classification Summary
  ***************************
  
  -------------------------------------------------------------------------------------
                      Adjusted    ---------- Fraction of Time in Flow Class ---------- 
                       /Actual         Up    Down  Sub   Sup   Up    Down  Norm  Inlet 
  Conduit               Length    Dry  Dry   Dry   Crit  Crit  Crit  Crit  Ltd   Ctrl  
  -------------------------------------------------------------------------------------
  WSL2038                 1.00   0.00  0.00  0.00  1.00  0.00  0.00  0.00  0.01  0.00
  WSL2039                 1.00   0.00  0.00  0.00  1.00  0.00  0.00  0.00  0.00  0.00
  WSL2041                 1.00   0.00  0.00  0.00  1.00  0.00  0.00  0.00  0.33  0.00
  WSL2294                 1.00   0.00  0.00  0.00  1.00  0.00  0.00  0.00  0.00  0.00
  WSL2295                 1.00   0.00  0.00  0.00  1.00  0.00  0.00  0.00  0.00  0.00
  WSL2296                 1.00   0.00  0.00  0.00  1.00  0.00  0.00  0.00  0.17  0.00
  WSL2297                 1.00   0.00  0.00  0.00  1.00  0.00  0.00  0.00  0.00  0.00
  WSL2298                 1.00   0.00  0.00  0.00  0.97  0.03  0.00  0.00  0.00  0.00
  WSL2301                 1.00   0.00  0.00  0.00  1.00  0.00  0.00  0.00  0.04  0.00
  WSL2302                 1.00   0.00  0.00  0.00  1.00  0.00  0.00  0.00  0.01  0.00
  WSL2441                 1.00   0.00  0.00  0.00  1.00  0.00  0.00  0.00  0.00  0.00
  WSL2442                 1.00   0.00  0.00  0.00  1.00  0.00  0.00  0.00  0.17  0.00
  WSL2443                 1.00   0.00  0.00  0.00  1.00  0.00  0.00  0.00  0.31  0.00
  WSL2444                 1.00   0.00  0.00  0.00  0.91  0.09  0.00  0.00  0.24  0.00
  WSL2446                 1.00   0.00  0.00  0.00  0.90  0.10  0.00  0.00  0.03  0.00
  WSL2447                 1.00   0.00  0.00  0.00  1.00  0.00  0.00  0.00  0.00  0.00
  WSL2448                 1.00   0.00  0.00  0.00  1.00  0.00  0.00  0.00  0.00  0.00
  WSL2449                 1.00   0.00  0.00  0.00  1.00  0.00  0.00  0.00  0.03  0.00
  WSL2450                 1.00   0.00  0.00  0.00  1.00  0.00  0.00  0.00  0.45  0.00
  WSL2451                 1.00   0.00  0.00  0.00  1.00  0.00  0.00  0.00  0.00  0.00
  WSL2452                 1.00   0.00  0.00  0.00  1.00  0.00  0.00  0.00  0.46  0.00
  WSL2454                 1.00   0.00  0.00  0.00  1.00  0.00  0.00  0.00  0.02  0.00
  WSL2478                 1.00   0.00  0.00  0.00  1.00  0.00  0.00  0.00  0.00  0.00
  WSL2479                 1.00   0.00  0.00  0.00  1.00  0.00  0.00  0.00  0.50  0.00
  WSL2480                 1.00   0.00  0.00  0.00  1.00  0.00  0.00  0.00  0.00  0.00
  WSL2482                 1.00   0.00  0.00  0.00  1.00  0.00  0.00  0.00  0.52  0.00
  WSL2484                 1.00   0.00  0.00  0.00  1.00  0.00  0.00  0.00  0.52  0.00
  WSL2493                 1.00   0.00  0.00  0.00  1.00  0.00  0.00  0.00  0.05  0.00
  8                       1.00   0.19  0.00  0.00  0.00  0.81  0.00  0.00  0.02  0.00
  19                      1.00   1.00  0.00  0.00  0.00  0.00  0.00  0.00  0.00  0.00
  17                      1.00   0.19  0.00  0.00  0.00  0.81  0.00  0.00  0.00  0.00
  
  
  *************************
  Conduit Surcharge Summary
  *************************
  
  ----------------------------------------------------------------------------
                                                           Hours        Hours 
                         --------- Hours Full --------   Above Full   Capacity
  Conduit                Both Ends  Upstream  Dnstream   Normal Flow   Limited
  ----------------------------------------------------------------------------
  WSL2294                     2.12      2.12      2.13      0.01         0.01
  WSL2295                     2.13      2.13      2.14      0.01         0.01
  WSL2296                     2.15      2.15      2.74      0.01         0.01
  WSL2297                     2.40      2.40      2.44      0.01         0.01
  WSL2298                     2.14      2.14      2.15      0.01         0.01
  WSL2301                     2.44      2.44      2.52      0.01         0.01
  WSL2302                     2.52      2.52      2.59      0.01         0.01
  WSL2441                     2.10      2.10      2.12      0.01         0.01
  WSL2442                     2.10      2.10      2.14      0.01         0.01
  WSL2443                     2.00      2.00      2.10      0.01         0.01
  WSL2444                     1.90      1.90      2.00      0.01         0.01
  WSL2446                     1.81      1.81      1.90      0.01         0.01
  WSL2447                     1.80      1.80      1.81      0.01         0.01
  WSL2448                     1.80      1.80      1.80      0.01         0.01
  WSL2449                     1.77      1.77      1.80      0.01         0.01
  WSL2450                     1.73      1.73      1.77      0.01         0.01
  WSL2451                     1.72      1.72      1.73      0.01         0.01
  WSL2452                     1.64      1.64      1.72      0.01         0.01
  WSL2454                     1.62      1.62      1.64      0.01         0.01
  WSL2478                     1.61      1.61      1.62      0.01         0.01
  WSL2479                     0.01      0.01      1.61      0.01         0.01
  WSL2493                     2.07      2.07      2.10      0.01         0.01
  
  
  ***************
  Pumping Summary
  ***************
  
  ---------------------------------------------------------------------------------------------------------
                                                  Min       Avg       Max     Total     Power    % Time Off
                        Percent   Number of      Flow      Flow      Flow    Volume     Usage    Pump Curve
  Pump                 Utilized   Start-Ups       MLD       MLD       MLD  10^6 ltr     Kw-hr    Low   High
  ---------------------------------------------------------------------------------------------------------
  CC-Pump-1                0.00           0      0.00      0.00      0.00     0.000      0.00    0.0    0.0
  CC-Pump-2                0.00           0      0.00      0.00      0.00     0.000      0.00    0.0    0.0
  
  
  ***************************
  Link Pollutant Load Summary
  ***************************
  
  ------------------------------------------------------------------------------------------
                                 COD         NH3-N            TN            TP            SS
  Link                            kg            kg            kg            kg            kg
  ------------------------------------------------------------------------------------------
  WSL2038                     16.319         0.000         0.000         0.000         0.000
  WSL2039                     21.549         0.000         0.000         0.000         0.000
  WSL2041                     19.138         0.000         0.000         0.000         0.000
  WSL2294                     55.042         0.000         0.000         0.000         0.000
  WSL2295                     48.685         0.000         0.000         0.000         0.000
  WSL2296                     49.973         0.000         0.000         0.000         0.000
  WSL2297                     49.397         0.000         0.000         0.000         0.000
  WSL2298                     46.688         0.000         0.000         0.000         0.000
  WSL2301                     48.063         0.000         0.000         0.000         0.000
  WSL2302                     48.846         0.000         0.000         0.000         0.000
  WSL2441                     60.070         0.000         0.000         0.000         0.000
  WSL2442                     43.802         0.000         0.000         0.000         0.000
  WSL2443                     42.053         0.000         0.000         0.000         0.000
  WSL2444                     41.059         0.000         0.000         0.000         0.000
  WSL2446                     40.403         0.000         0.000         0.000         0.000
  WSL2447                     39.828         0.000         0.000         0.000         0.000
  WSL2448                     39.527         0.000         0.000         0.000         0.000
  WSL2449                     39.024         0.000         0.000         0.000         0.000
  WSL2450                     38.793         0.000         0.000         0.000         0.000
  WSL2451                     38.642         0.000         0.000         0.000         0.000
  WSL2452                     38.880         0.000         0.000         0.000         0.000
  WSL2454                     38.335         0.000         0.000         0.000         0.000
  WSL2478                     37.953         0.000         0.000         0.000         0.000
  WSL2479                     43.780         0.000         0.000         0.000         0.000
  WSL2480                     36.229         0.000         0.000         0.000         0.000
  WSL2482                     32.303         0.000         0.000         0.000         0.000
  WSL2484                     24.502         0.000         0.000         0.000         0.000
  WSL2493                     43.560         0.000         0.000         0.000         0.000
  8                           54.488         0.000         0.000         0.000         0.000
  19                           0.000         0.000         0.000         0.000         0.000
  17                          43.427         0.000         0.000         0.000         0.000
  CC-Pump-1                    0.000         0.000         0.000         0.000         0.000
  CC-Pump-2                    0.000         0.000         0.000         0.000         0.000
  

  Analysis begun on:  Sun Aug 18 10:00:39 2019
  Analysis ended on:  Sun Aug 18 10:00:39 2019
  Total elapsed time: < 1 sec