
  EPA STORM WATER MANAGEMENT MODEL - VERSION 5.1 (Build 5.2.0.dev5)
  --------------------------------------------------------------

  
  *********************************************************
  NOTE: The summary statistics displayed in this report are
  based on results found at every computational time step,  
  not just on results from each reporting time step.
  *********************************************************
  
  ****************
  Analysis Options
  ****************
  Flow Units ............... MLD
  Process Models:
    Rainfall/Runoff ........ YES
    RDII ................... NO
    Snowmelt ............... NO
    Groundwater ............ NO
    Flow Routing ........... YES
    Ponding Allowed ........ NO
    Water Quality .......... YES
  Infiltration Method ...... GREEN_AMPT
  Flow Routing Method ...... DYNWAVE
  Surcharge Method ......... EXTRAN
  Starting Date ............ 08/28/2015 08:00:00
  Ending Date .............. 08/28/2015 11:50:00
  Antecedent Dry Days ...... 4.0
  Report Time Step ......... 00:01:00
  Wet Time Step ............ 00:01:00
  Dry Time Step ............ 00:01:00
  Routing Time Step ........ 5.00 sec
  Variable Time Step ....... YES
  Maximum Trials ........... 8
  Number of Threads ........ 1
  Head Tolerance ........... 0.001500 m
  
  
  **************************        Volume         Depth
  Runoff Quantity Continuity     hectare-m            mm
  **************************     ---------       -------
  Total Precipitation ......         1.140        18.422
  Evaporation Loss .........         0.000         0.000
  Infiltration Loss ........         0.477         7.708
  Surface Runoff ...........         0.242         3.913
  Final Storage ............         0.421         6.802
  Continuity Error (%) .....        -0.007
  
  
  **************************           COD         NH3-N            TN            TP            SS
  Runoff Quality Continuity             kg            kg            kg            kg            kg
  **************************    ----------    ----------    ----------    ----------    ----------
  Initial Buildup ..........      2504.640         0.000         0.000         0.000         0.000
  Surface Buildup ..........        19.800         0.000         0.000         0.000         0.000
  Wet Deposition ...........         0.000         0.000         0.000         0.000         0.000
  Sweeping Removal .........         0.000         0.000         0.000         0.000         0.000
  Infiltration Loss ........        84.781         0.000         0.000         0.000         0.000
  BMP Removal ..............         0.000         0.000         0.000         0.000         0.000
  Surface Runoff ...........       394.383         0.000         0.000         0.000         0.000
  Remaining Buildup ........      2043.366         0.000         0.000         0.000         0.000
  Continuity Error (%) .....         0.076         0.000         0.000         0.000         0.000
  
  
  **************************        Volume        Volume
  Flow Routing Continuity        hectare-m      10^6 ltr
  **************************     ---------     ---------
  Dry Weather Inflow .......         0.000         0.000
  Wet Weather Inflow .......         0.241         2.414
  Groundwater Inflow .......         0.000         0.000
  RDII Inflow ..............         0.000         0.000
  External Inflow ..........         0.082         0.822
  External Outflow .........         0.160         1.604
  Flooding Loss ............         0.097         0.970
  Evaporation Loss .........         0.000         0.000
  Exfiltration Loss ........         0.000         0.000
  Initial Stored Volume ....         0.000         0.000
  Final Stored Volume ......         0.062         0.621
  Continuity Error (%) .....         1.274
  
  
  **************************           COD         NH3-N            TN            TP            SS
  Quality Routing Continuity            kg            kg            kg            kg            kg
  **************************    ----------    ----------    ----------    ----------    ----------
  Dry Weather Inflow .......         0.000         0.000         0.000         0.000         0.000
  Wet Weather Inflow .......       393.344         0.000         0.000         0.000         0.000
  Groundwater Inflow .......         0.000         0.000         0.000         0.000         0.000
  RDII Inflow ..............         0.000         0.000         0.000         0.000         0.000
  External Inflow ..........       137.267         0.000         0.000         0.000         0.000
  External Outflow .........       245.413         0.000         0.000         0.000         0.000
  Flooding Loss ............       153.184         0.000         0.000         0.000         0.000
  Exfiltration Loss ........         0.000         0.000         0.000         0.000         0.000
  Mass Reacted .............         0.000         0.000         0.000         0.000         0.000
  Initial Stored Mass ......         0.000         0.000         0.000         0.000         0.000
  Final Stored Mass ........       124.439         0.000         0.000         0.000         0.000
  Continuity Error (%) .....         1.428         0.000         0.000         0.000         0.000
  
  
  *************************
  Highest Continuity Errors
  *************************
  Node WS02006230 (8.71%)
  Node WS02006229 (5.75%)
  Node WS02006231 (5.07%)
  Node WS02006115 (4.80%)
  Node WS02006116 (4.42%)
  
  
  ***************************
  Time-Step Critical Elements
  ***************************
  Link 8 (84.91%)
  Link WSL2448 (12.42%)
  
  
  ********************************
  Highest Flow Instability Indexes
  ********************************
  Link WSL2301 (3)
  Link WSL2302 (3)
  Link WSL2297 (3)
  Link WSL2296 (2)
  Link WSL2298 (2)
  
  
  *************************
  Routing Time Step Summary
  *************************
  Minimum Time Step           :     0.50 sec
  Average Time Step           :     1.19 sec
  Maximum Time Step           :     5.00 sec
  Percent in Steady State     :    -0.00
  Average Iterations per Step :     2.06
  Percent Not Converging      :     0.21
  
  
  ***************************
  Subcatchment Runoff Summary
  ***************************
  
  ------------------------------------------------------------------------------------------------------------------------------
                            Total      Total      Total      Total     Imperv       Perv      Total       Total     Peak  Runoff
                           Precip      Runon       Evap      Infil     Runoff     Runoff     Runoff      Runoff   Runoff   Coeff
  Subcatchment                 mm         mm         mm         mm         mm         mm         mm    10^6 ltr      MLD
  ------------------------------------------------------------------------------------------------------------------------------
  1                         18.42      19.69       0.00       9.01       8.99       7.90      16.89        0.20     4.78   0.443
  2                         18.42       0.00       0.00       7.35       4.36       1.55       5.92        0.20     5.35   0.321
  3                         18.42       0.00       0.00       7.39       4.30       1.31       5.60        0.29     7.52   0.304
  35                        18.42       0.00       0.00       7.34       4.38       1.62       6.00        0.18     4.90   0.326
  36                        18.42      11.60       0.00       8.70       6.84       3.04       9.88        0.58    13.80   0.329
  40                        18.42       3.15       0.00       7.76       5.05       1.99       7.04        0.28     7.11   0.326
  41                        18.42       0.00       0.00       7.30       4.43       1.94       6.37        0.12     3.40   0.346
  42                        18.42       0.00       0.00       7.31       4.41       1.82       6.23        0.14     3.88   0.338
  43                        18.42       0.00       0.00       7.04       4.54       3.51       8.05        0.03     0.86   0.437
  44                        18.42     164.40       0.00      14.13      44.53      91.84     136.37        0.50    10.74   0.746
  45                        18.42       0.00       0.00       7.22       4.49       2.47       6.95        0.07     2.03   0.378
  46                        18.42       9.82       0.00       8.38       6.66       4.09      10.75        0.23     5.74   0.380
  47                        18.42       0.00       0.00       7.23       4.48       2.40       6.88        0.08     2.16   0.374
  48                        18.42       4.82       0.00       7.83       5.56       3.26       8.82        0.14     3.68   0.380
  55                        18.42       7.22       0.00       7.96       6.19       4.86      11.06        0.09     2.44   0.431
  56                        18.42      10.79       0.00       8.46       6.88       4.32      11.20        0.24     5.92   0.383
  57                        18.42       0.00       0.00       7.39       4.30       1.32       5.62        0.28     7.40   0.305
  59                        18.42       0.00       0.00       7.19       4.50       2.65       7.16        0.06     1.72   0.388
  60                        18.42      15.66       0.00       8.58       8.25       9.01      17.26        0.09     2.30   0.506
  61                        18.42       0.00       0.00       7.46       4.00       0.74       4.74        0.85    21.27   0.258
  64                        18.42       0.00       0.00       7.24       4.47       2.33       6.81        0.08     2.30   0.370
  
  
  ****************************
  Subcatchment Washoff Summary
  ****************************
  
  ------------------------------------------------------------------------------------------
                                 COD         NH3-N            TN            TP            SS
  Subcatchment                    kg            kg            kg            kg            kg
  ------------------------------------------------------------------------------------------
  1                           31.461         0.000         0.000         0.000         0.000
  2                            0.000         0.000         0.000         0.000         0.000
  3                            0.000         0.000         0.000         0.000         0.000
  35                          32.307         0.000         0.000         0.000         0.000
  36                         183.449         0.000         0.000         0.000         0.000
  40                          60.595         0.000         0.000         0.000         0.000
  41                          22.948         0.000         0.000         0.000         0.000
  42                          25.968         0.000         0.000         0.000         0.000
  43                           6.357         0.000         0.000         0.000         0.000
  44                         160.466         0.000         0.000         0.000         0.000
  45                          14.165         0.000         0.000         0.000         0.000
  46                          72.229         0.000         0.000         0.000         0.000
  47                          14.994         0.000         0.000         0.000         0.000
  48                          36.210         0.000         0.000         0.000         0.000
  55                          27.156         0.000         0.000         0.000         0.000
  56                          77.355         0.000         0.000         0.000         0.000
  57                          47.555         0.000         0.000         0.000         0.000
  59                          12.132         0.000         0.000         0.000         0.000
  60                          28.926         0.000         0.000         0.000         0.000
  61                         127.744         0.000         0.000         0.000         0.000
  64                          15.910         0.000         0.000         0.000         0.000
  ------------------------------------------------------------------------------------------
  System                     997.928         0.000         0.000         0.000         0.000
  
  
  ******************
  Node Depth Summary
  ******************
  
  ---------------------------------------------------------------------------------
                                 Average  Maximum  Maximum  Time of Max    Reported
                                   Depth    Depth      HGL   Occurrence   Max Depth
  Node                 Type       Meters   Meters   Meters  days hr:min      Meters
  ---------------------------------------------------------------------------------
  WS01000070           JUNCTION     0.00     0.00     0.00     0  00:00        0.00
  WS01000323           JUNCTION     0.00     0.00     0.00     0  00:00        0.00
  WS01000533           JUNCTION     0.00     0.00     6.86     0  00:00        0.00
  WS01005172           JUNCTION     0.00     0.00     0.00     0  00:00        0.00
  WS01005181           JUNCTION     0.00     0.00     0.00     0  00:00        0.00
  WS01009841           JUNCTION     0.00     0.00     0.00     0  00:00        0.00
  WS02000078           JUNCTION     0.00     0.00     0.00     0  00:00        0.00
  WS02000112           JUNCTION     0.00     0.00     0.00     0  00:00        0.00
  WS02000136           JUNCTION     0.00     0.00     0.00     0  00:00        0.00
  WS02004053           JUNCTION     0.00     0.00     0.00     0  00:00        0.00
  WS02004401           JUNCTION     2.10     2.33     8.33     0  03:01        2.33
  WS02005192           JUNCTION     0.38     0.49     8.36     0  03:01        0.49
  WS02005193           JUNCTION     0.42     0.53     8.35     0  03:01        0.53
  WS02005196           JUNCTION     0.40     0.51     8.36     0  03:01        0.50
  WS02006109           JUNCTION     1.51     1.74     8.36     0  03:00        1.74
  WS02006110           JUNCTION     1.53     1.76     8.36     0  03:00        1.76
  WS02006111           JUNCTION     1.54     1.77     8.35     0  03:00        1.77
  WS02006112           JUNCTION     1.99     2.22     8.34     0  03:00        2.22
  WS02006113           JUNCTION     1.54     1.77     8.36     0  03:00        1.76
  WS02006115           JUNCTION     2.01     2.24     8.34     0  03:00        2.24
  WS02006116           JUNCTION     2.07     2.30     8.34     0  03:00        2.30
  WS02006183           JUNCTION     0.00     0.00     0.00     0  00:00        0.00
  WS02006228           JUNCTION     1.48     1.71     8.36     0  03:00        1.71
  WS02006229           JUNCTION     1.44     1.67     8.36     0  03:00        1.67
  WS02006230           JUNCTION     1.39     1.61     8.36     0  03:01        1.61
  WS02006231           JUNCTION     1.24     1.46     8.36     0  03:01        1.46
  WS02006232           JUNCTION     1.13     1.33     8.36     0  03:01        1.33
  WS02006234           JUNCTION     1.01     1.20     8.36     0  03:01        1.20
  WS02006235           JUNCTION     1.00     1.19     8.36     0  03:01        1.19
  WS02006238           JUNCTION     0.99     1.18     8.36     0  03:01        1.18
  WS02006239           JUNCTION     0.96     1.15     8.36     0  03:01        1.15
  WS02006242           JUNCTION     0.88     1.05     8.35     0  03:01        1.05
  WS02006240           JUNCTION     0.89     1.06     8.35     0  03:01        1.06
  WS02006243           JUNCTION     0.77     0.93     8.35     0  03:01        0.93
  WS02006245           JUNCTION     0.71     0.86     8.35     0  03:01        0.86
  WS02006247           JUNCTION     0.69     0.83     8.34     0  03:01        0.83
  WS02006248           JUNCTION     0.62     0.75     8.34     0  03:01        0.75
  WS02006249           JUNCTION     0.61     0.74     8.34     0  03:01        0.74
  WS02006251           JUNCTION     0.55     0.68     8.35     0  03:01        0.68
  WS02006253           JUNCTION     0.44     0.55     8.35     0  03:01        0.55
  WS02618401           JUNCTION     0.00     0.00     0.00     0  00:00        0.00
  WSA1649              JUNCTION     0.00     0.00     0.00     0  00:00        0.00
  outfall-5            OUTFALL      0.09     0.15     7.82     0  03:01        0.15
  outfall-14           OUTFALL      0.08     0.13     7.79     0  03:01        0.13
  outfall-16           OUTFALL      0.00     0.00     8.39     0  00:00        0.00
  CC-storage           STORAGE      5.29     5.63     8.81     0  01:38        5.63
  
  
  *******************
  Node Inflow Summary
  *******************
  
  -------------------------------------------------------------------------------------------------
                                  Maximum  Maximum                  Lateral       Total        Flow
                                  Lateral    Total  Time of Max      Inflow      Inflow     Balance
                                   Inflow   Inflow   Occurrence      Volume      Volume       Error
  Node                 Type           MLD      MLD  days hr:min    10^6 ltr    10^6 ltr     Percent
  -------------------------------------------------------------------------------------------------
  WS01000070           JUNCTION      0.00     0.00     0  00:00           0           0       0.000 ltr
  WS01000323           JUNCTION      0.00     0.00     0  00:00           0           0       0.000 ltr
  WS01000533           JUNCTION      0.00     0.00     0  00:00           0           0       0.000 ltr
  WS01005172           JUNCTION      0.00     0.00     0  00:00           0           0       0.000 ltr
  WS01005181           JUNCTION      0.00     0.00     0  00:00           0           0       0.000 ltr
  WS01009841           JUNCTION      0.00     0.00     0  00:00           0           0       0.000 ltr
  WS02000078           JUNCTION      0.00     0.00     0  00:00           0           0       0.000 ltr
  WS02000112           JUNCTION      0.00     0.00     0  00:00           0           0       0.000 ltr
  WS02000136           JUNCTION      0.00     0.00     0  00:00           0           0       0.000 ltr
  WS02004053           JUNCTION      0.00     0.00     0  00:00           0           0       0.000 ltr
  WS02004401           JUNCTION      0.05    18.33     0  03:01      0.0086       0.756       3.865
  WS02005192           JUNCTION      7.49     7.49     0  03:01       0.297       0.297       0.819
  WS02005193           JUNCTION      0.09     7.63     0  03:01       0.014       0.324       2.184
  WS02005196           JUNCTION      0.12     7.58     0  03:01      0.0183       0.314       2.051
  WS02006109           JUNCTION      0.08    10.21     0  03:01      0.0129       0.583       4.366
  WS02006110           JUNCTION      0.08    10.29     0  03:01      0.0126       0.572       4.506
  WS02006111           JUNCTION      0.24    17.86     0  03:01      0.0352       0.804       2.646
  WS02006112           JUNCTION      0.18    18.01     0  03:01      0.0263       0.807       4.243
  WS02006113           JUNCTION      7.66    17.66     0  03:01       0.311       0.826       2.966
  WS02006115           JUNCTION      0.08    18.09     0  03:01      0.0129        0.79       5.046
  WS02006116           JUNCTION      0.24    18.28     0  03:01      0.0347        0.79       4.626
  WS02006183           JUNCTION      0.00     0.00     0  00:00           0           0       0.000 ltr
  WS02006228           JUNCTION     10.89    10.89     0  03:04        0.53       0.687       2.719
  WS02006229           JUNCTION      0.13     4.65     0  02:02      0.0193        0.28       6.106
  WS02006230           JUNCTION      0.07     4.59     0  02:02      0.0111       0.291       9.538
  WS02006231           JUNCTION      0.13     4.12     0  01:56      0.0197       0.298       5.337
  WS02006232           JUNCTION      5.43     6.53     0  03:01       0.212       0.488       3.251
  WS02006234           JUNCTION      0.14     6.65     0  03:01      0.0208       0.481       2.962
  WS02006235           JUNCTION      0.14     6.77     0  03:01      0.0215       0.476       1.686
  WS02006238           JUNCTION      0.15     6.90     0  03:01      0.0226       0.477       2.144
  WS02006239           JUNCTION      0.11     6.99     0  03:01      0.0167       0.476       3.317
  WS02006242           JUNCTION      0.08     7.12     0  03:01      0.0124       0.476       4.022
  WS02006240           JUNCTION      0.06     7.05     0  03:01     0.00952       0.472       3.593
  WS02006243           JUNCTION      0.17     7.27     0  03:01      0.0259       0.482       3.701
  WS02006245           JUNCTION      0.07     7.33     0  03:01      0.0109       0.471       2.889
  WS02006247           JUNCTION      4.91    12.20     0  03:01       0.228       0.665       1.740
  WS02006248           JUNCTION      0.12    22.58     0  03:01      0.0185           1       1.058
  WS02006249           JUNCTION      0.19    10.44     0  03:01      0.0275       0.466       3.150
  WS02006251           JUNCTION      2.50    10.20     0  03:01       0.101       0.442       3.289
  WS02006253           JUNCTION      0.11     7.74     0  03:01      0.0166        0.34       2.120
  WS02618401           JUNCTION      0.00     0.00     0  00:00           0           0       0.000 ltr
  WSA1649              JUNCTION      0.00     0.00     0  00:00           0           0       0.000 ltr
  outfall-5            OUTFALL       0.00    22.58     0  03:01           0       0.883       0.000
  outfall-14           OUTFALL       0.00    18.33     0  03:01           0       0.721       0.000
  outfall-16           OUTFALL       0.00     0.00     0  00:00           0           0       0.000 ltr
  CC-storage           STORAGE      22.73    22.73     0  03:01        1.13        1.13       0.015
  
  
  **********************
  Node Surcharge Summary
  **********************
  
  Surcharging occurs when water rises above the top of the highest conduit.
  ---------------------------------------------------------------------
                                               Max. Height   Min. Depth
                                   Hours       Above Crown    Below Rim
  Node                 Type      Surcharged         Meters       Meters
  ---------------------------------------------------------------------
  WS01000070           JUNCTION        3.83          0.000        0.000
  WS01000323           JUNCTION        3.83          0.000        0.000
  WS01000533           JUNCTION        3.83          0.000        2.147
  WS01005172           JUNCTION        3.83          0.000        0.000
  WS01005181           JUNCTION        3.83          0.000        0.000
  WS01009841           JUNCTION        3.83          0.000        0.000
  WS02000078           JUNCTION        3.83          0.000        0.000
  WS02000112           JUNCTION        3.83          0.000        0.000
  WS02000136           JUNCTION        3.83          0.000        0.000
  WS02004053           JUNCTION        3.83          0.000        0.000
  WS02006109           JUNCTION        2.16          0.941        0.897
  WS02006110           JUNCTION        2.17          0.958        0.887
  WS02006111           JUNCTION        2.18          0.967        0.910
  WS02006112           JUNCTION        2.42          1.222        0.461
  WS02006113           JUNCTION        2.17          0.965        0.968
  WS02006115           JUNCTION        2.44          1.238        1.061
  WS02006116           JUNCTION        2.52          1.296        1.054
  WS02006183           JUNCTION        3.83          0.000        0.000
  WS02006228           JUNCTION        2.14          0.913        1.318
  WS02006229           JUNCTION        2.12          0.873        1.581
  WS02006231           JUNCTION        2.05          0.763        0.780
  WS02006232           JUNCTION        1.97          0.633        0.856
  WS02006234           JUNCTION        1.90          0.501        0.756
  WS02006235           JUNCTION        1.89          0.490        0.804
  WS02006238           JUNCTION        1.88          0.479        0.955
  WS02006239           JUNCTION        1.87          0.447        0.882
  WS02006242           JUNCTION        1.82          0.352        0.497
  WS02006240           JUNCTION        1.82          0.365        1.038
  WS02006243           JUNCTION        1.76          0.229        0.551
  WS02006245           JUNCTION        1.74          0.156        0.699
  WS02006247           JUNCTION        1.73          0.134        0.626
  WS02006249           JUNCTION        0.69          0.043        0.345
  WS02618401           JUNCTION        3.83          0.000        0.000
  WSA1649              JUNCTION        3.83          0.000        0.000
  
  
  *********************
  Node Flooding Summary
  *********************
  
  Flooding refers to all water that overflows a node, whether it ponds or not.
  --------------------------------------------------------------------------
                                                             Total   Maximum
                                 Maximum   Time of Max       Flood    Ponded
                        Hours       Rate    Occurrence      Volume     Depth
  Node                 Flooded       MLD   days hr:min    10^6 ltr    Meters
  --------------------------------------------------------------------------
  CC-storage              2.20     22.73      0  03:01       0.970     0.000
  
  
  **********************
  Storage Volume Summary
  **********************
  
  --------------------------------------------------------------------------------------------------
                         Average     Avg  Evap Exfil       Maximum     Max    Time of Max    Maximum
                          Volume    Pcnt  Pcnt  Pcnt        Volume    Pcnt     Occurrence    Outflow
  Storage Unit           1000 m3    Full  Loss  Loss       1000 m3    Full    days hr:min        MLD
  --------------------------------------------------------------------------------------------------
  CC-storage               0.149      94     0     0         0.159     100       0  01:38       0.00
  
  
  ***********************
  Outfall Loading Summary
  ***********************
  
  ---------------------------------------------------------------------------------------------------------------------------------
                         Flow       Avg       Max       Total         Total         Total         Total         Total         Total
                         Freq      Flow      Flow      Volume           COD         NH3-N            TN            TP            SS
  Outfall Node           Pcnt       MLD       MLD    10^6 ltr            kg            kg            kg            kg            kg
  ---------------------------------------------------------------------------------------------------------------------------------
  outfall-5             84.94     12.61     22.58       0.883       140.288         0.000         0.000         0.000         0.000
  outfall-14            84.92     10.33     18.33       0.721       105.139         0.000         0.000         0.000         0.000
  outfall-16             0.00      0.00      0.00       0.000         0.000         0.000         0.000         0.000         0.000
  ---------------------------------------------------------------------------------------------------------------------------------
  System                56.62     22.94     40.87       1.604       245.427         0.000         0.000         0.000         0.000
  
  
  ********************
  Link Flow Summary
  ********************
  
  -----------------------------------------------------------------------------
                                 Maximum  Time of Max   Maximum    Max/    Max/
                                  |Flow|   Occurrence   |Veloc|    Full    Full
  Link                 Type          MLD  days hr:min     m/sec    Flow   Depth
  -----------------------------------------------------------------------------
  WSL2038              CONDUIT      7.48     0  03:01      0.52    0.37    0.83
  WSL2039              CONDUIT      7.65     0  03:01      0.78    0.39    0.90
  WSL2041              CONDUIT      7.55     0  03:01      0.58    0.37    0.86
  WSL2294              CONDUIT     10.21     0  03:01      0.43    0.34    1.00
  WSL2295              CONDUIT     10.29     0  03:01      0.50    0.46    1.00
  WSL2296              CONDUIT     17.86     0  03:01      0.63    0.10    1.00
  WSL2297              CONDUIT     18.01     0  03:01      0.34    0.35    1.00
  WSL2298              CONDUIT     17.66     0  03:01      0.87    0.81    1.00
  WSL2301              CONDUIT     18.09     0  03:01      0.29    0.17    1.00
  WSL2302              CONDUIT     18.28     0  03:01      0.27    0.22    1.00
  WSL2441              CONDUIT     10.14     0  03:01      0.44    0.26    1.00
  WSL2442              CONDUIT      4.52     0  02:02      0.63    0.12    1.00
  WSL2443              CONDUIT      3.99     0  01:56      0.73    0.06    1.00
  WSL2444              CONDUIT      4.12     0  01:56      0.89    0.07    1.00
  WSL2446              CONDUIT      6.53     0  03:01      0.85    0.11    1.00
  WSL2447              CONDUIT      6.65     0  03:01      0.73    0.34    1.00
  WSL2448              CONDUIT      6.77     0  03:01      0.59    0.19    1.00
  WSL2449              CONDUIT      6.89     0  03:01      0.57    0.24    1.00
  WSL2450              CONDUIT      6.99     0  03:01      0.65    0.15    1.00
  WSL2451              CONDUIT      7.05     0  03:01      0.63    0.46    1.00
  WSL2452              CONDUIT      7.12     0  03:01      0.65    0.14    1.00
  WSL2454              CONDUIT      7.27     0  03:01      0.80    0.17    1.00
  WSL2478              CONDUIT      7.34     0  03:01      0.69    0.26    1.00
  WSL2479              CONDUIT     12.20     0  03:01      0.61    0.23    1.00
  WSL2480              CONDUIT     10.45     0  03:02      0.67    0.48    1.00
  WSL2482              CONDUIT     10.29     0  03:01      0.59    0.27    0.98
  WSL2484              CONDUIT      7.82     0  03:01      0.68    0.11    0.88
  WSL2493              CONDUIT      4.53     0  02:02      0.51    0.08    1.00
  8                    CONDUIT     22.58     0  03:01      6.09    0.30    0.37
  19                   CONDUIT      0.00     0  00:00      0.00    0.00    0.00
  17                   CONDUIT     18.33     0  03:01      5.81    0.24    0.33
  CC-Pump-1            PUMP         0.00     0  00:00              0.00
  CC-Pump-2            PUMP         0.00     0  00:00              0.00
  
  
  ***************************
  Flow Classification Summary
  ***************************
  
  -------------------------------------------------------------------------------------
                      Adjusted    ---------- Fraction of Time in Flow Class ---------- 
                       /Actual         Up    Down  Sub   Sup   Up    Down  Norm  Inlet 
  Conduit               Length    Dry  Dry   Dry   Crit  Crit  Crit  Crit  Ltd   Ctrl  
  -------------------------------------------------------------------------------------
  WSL2038                 1.00   0.00  0.00  0.00  1.00  0.00  0.00  0.00  0.01  0.00
  WSL2039                 1.00   0.00  0.00  0.00  1.00  0.00  0.00  0.00  0.00  0.00
  WSL2041                 1.00   0.00  0.00  0.00  1.00  0.00  0.00  0.00  0.32  0.00
  WSL2294                 1.00   0.00  0.00  0.00  1.00  0.00  0.00  0.00  0.00  0.00
  WSL2295                 1.00   0.00  0.00  0.00  1.00  0.00  0.00  0.00  0.00  0.00
  WSL2296                 1.00   0.00  0.00  0.00  1.00  0.00  0.00  0.00  0.17  0.00
  WSL2297                 1.00   0.00  0.00  0.00  1.00  0.00  0.00  0.00  0.00  0.00
  WSL2298                 1.00   0.00  0.00  0.00  0.98  0.02  0.00  0.00  0.00  0.00
  WSL2301                 1.00   0.00  0.00  0.00  1.00  0.00  0.00  0.00  0.04  0.00
  WSL2302                 1.00   0.00  0.00  0.00  1.00  0.00  0.00  0.00  0.01  0.00
  WSL2441                 1.00   0.00  0.00  0.00  1.00  0.00  0.00  0.00  0.00  0.00
  WSL2442                 1.00   0.00  0.00  0.00  1.00  0.00  0.00  0.00  0.17  0.00
  WSL2443                 1.00   0.00  0.00  0.00  1.00  0.00  0.00  0.00  0.31  0.00
  WSL2444                 1.00   0.00  0.00  0.00  0.93  0.07  0.00  0.00  0.24  0.00
  WSL2446                 1.00   0.00  0.00  0.00  0.92  0.08  0.00  0.00  0.03  0.00
  WSL2447                 1.00   0.00  0.00  0.00  1.00  0.00  0.00  0.00  0.00  0.00
  WSL2448                 1.00   0.00  0.00  0.00  1.00  0.00  0.00  0.00  0.00  0.00
  WSL2449                 1.00   0.00  0.00  0.00  1.00  0.00  0.00  0.00  0.03  0.00
  WSL2450                 1.00   0.00  0.00  0.00  1.00  0.00  0.00  0.00  0.44  0.00
  WSL2451                 1.00   0.00  0.00  0.00  1.00  0.00  0.00  0.00  0.00  0.00
  WSL2452                 1.00   0.00  0.00  0.00  1.00  0.00  0.00  0.00  0.44  0.00
  WSL2454                 1.00   0.00  0.00  0.00  1.00  0.00  0.00  0.00  0.02  0.00
  WSL2478                 1.00   0.00  0.00  0.00  1.00  0.00  0.00  0.00  0.00  0.00
  WSL2479                 1.00   0.00  0.00  0.00  1.00  0.00  0.00  0.00  0.48  0.00
  WSL2480                 1.00   0.00  0.00  0.00  1.00  0.00  0.00  0.00  0.00  0.00
  WSL2482                 1.00   0.00  0.00  0.00  1.00  0.00  0.00  0.00  0.50  0.00
  WSL2484                 1.00   0.00  0.00  0.00  1.00  0.00  0.00  0.00  0.50  0.00
  WSL2493                 1.00   0.00  0.00  0.00  1.00  0.00  0.00  0.00  0.05  0.00
  8                       1.00   0.15  0.00  0.00  0.00  0.85  0.00  0.00  0.01  0.00
  19                      1.00   1.00  0.00  0.00  0.00  0.00  0.00  0.00  0.00  0.00
  17                      1.00   0.15  0.00  0.00  0.00  0.85  0.00  0.00  0.00  0.00
  
  
  *************************
  Conduit Surcharge Summary
  *************************
  
  ----------------------------------------------------------------------------
                                                           Hours        Hours 
                         --------- Hours Full --------   Above Full   Capacity
  Conduit                Both Ends  Upstream  Dnstream   Normal Flow   Limited
  ----------------------------------------------------------------------------
  WSL2294                     2.16      2.16      2.17      0.01         0.01
  WSL2295                     2.17      2.17      2.17      0.01         0.01
  WSL2296                     2.18      2.18      2.74      0.01         0.01
  WSL2297                     2.42      2.42      2.44      0.01         0.01
  WSL2298                     2.17      2.17      2.18      0.01         0.01
  WSL2301                     2.44      2.44      2.52      0.01         0.01
  WSL2302                     2.52      2.52      2.60      0.01         0.01
  WSL2441                     2.14      2.14      2.16      0.01         0.01
  WSL2442                     2.15      2.15      2.18      0.01         0.01
  WSL2443                     2.05      2.05      2.15      0.01         0.01
  WSL2444                     1.97      1.97      2.05      0.01         0.01
  WSL2446                     1.90      1.90      1.97      0.01         0.01
  WSL2447                     1.89      1.89      1.90      0.01         0.01
  WSL2448                     1.88      1.88      1.89      0.01         0.01
  WSL2449                     1.87      1.87      1.88      0.01         0.01
  WSL2450                     1.82      1.82      1.87      0.01         0.01
  WSL2451                     1.82      1.82      1.82      0.01         0.01
  WSL2452                     1.76      1.76      1.82      0.01         0.01
  WSL2454                     1.74      1.74      1.76      0.01         0.01
  WSL2478                     1.73      1.73      1.74      0.01         0.01
  WSL2479                     1.03      1.03      1.73      0.01         0.01
  WSL2480                     0.69      0.69      1.03      0.01         0.01
  WSL2482                     0.01      0.01      0.69      0.01         0.01
  WSL2493                     2.12      2.12      2.14      0.01         0.01
  
  
  ***************
  Pumping Summary
  ***************
  
  ---------------------------------------------------------------------------------------------------------
                                                  Min       Avg       Max     Total     Power    % Time Off
                        Percent   Number of      Flow      Flow      Flow    Volume     Usage    Pump Curve
  Pump                 Utilized   Start-Ups       MLD       MLD       MLD  10^6 ltr     Kw-hr    Low   High
  ---------------------------------------------------------------------------------------------------------
  CC-Pump-1                0.00           0      0.00      0.00      0.00     0.000      0.00    0.0    0.0
  CC-Pump-2                0.00           0      0.00      0.00      0.00     0.000      0.00    0.0    0.0
  
  
  ***************************
  Link Pollutant Load Summary
  ***************************
  
  ------------------------------------------------------------------------------------------
                                 COD         NH3-N            TN            TP            SS
  Link                            kg            kg            kg            kg            kg
  ------------------------------------------------------------------------------------------
  WSL2038                     50.290         0.000         0.000         0.000         0.000
  WSL2039                     55.229         0.000         0.000         0.000         0.000
  WSL2041                     52.990         0.000         0.000         0.000         0.000
  WSL2294                    136.792         0.000         0.000         0.000         0.000
  WSL2295                    127.126         0.000         0.000         0.000         0.000
  WSL2296                    124.129         0.000         0.000         0.000         0.000
  WSL2297                    118.626         0.000         0.000         0.000         0.000
  WSL2298                    122.576         0.000         0.000         0.000         0.000
  WSL2301                    113.711         0.000         0.000         0.000         0.000
  WSL2302                    110.517         0.000         0.000         0.000         0.000
  WSL2441                    145.420         0.000         0.000         0.000         0.000
  WSL2442                     59.119         0.000         0.000         0.000         0.000
  WSL2443                     55.806         0.000         0.000         0.000         0.000
  WSL2444                     53.868         0.000         0.000         0.000         0.000
  WSL2446                     52.679         0.000         0.000         0.000         0.000
  WSL2447                     51.774         0.000         0.000         0.000         0.000
  WSL2448                     51.485         0.000         0.000         0.000         0.000
  WSL2449                     50.499         0.000         0.000         0.000         0.000
  WSL2450                     49.615         0.000         0.000         0.000         0.000
  WSL2451                     48.879         0.000         0.000         0.000         0.000
  WSL2452                     48.617         0.000         0.000         0.000         0.000
  WSL2454                     48.055         0.000         0.000         0.000         0.000
  WSL2478                     47.742         0.000         0.000         0.000         0.000
  WSL2479                     77.344         0.000         0.000         0.000         0.000
  WSL2480                     89.002         0.000         0.000         0.000         0.000
  WSL2482                     85.356         0.000         0.000         0.000         0.000
  WSL2484                     58.193         0.000         0.000         0.000         0.000
  WSL2493                     60.607         0.000         0.000         0.000         0.000
  8                          140.288         0.000         0.000         0.000         0.000
  19                           0.000         0.000         0.000         0.000         0.000
  17                         105.139         0.000         0.000         0.000         0.000
  CC-Pump-1                    0.000         0.000         0.000         0.000         0.000
  CC-Pump-2                    0.000         0.000         0.000         0.000         0.000
  

  Analysis begun on:  Sun Aug 18 10:00:14 2019
  Analysis ended on:  Sun Aug 18 10:00:14 2019
  Total elapsed time: < 1 sec