
  EPA STORM WATER MANAGEMENT MODEL - VERSION 5.1 (Build 5.2.0.dev5)
  --------------------------------------------------------------

  
  *********************************************************
  NOTE: The summary statistics displayed in this report are
  based on results found at every computational time step,  
  not just on results from each reporting time step.
  *********************************************************
  
  ****************
  Analysis Options
  ****************
  Flow Units ............... MLD
  Process Models:
    Rainfall/Runoff ........ YES
    RDII ................... NO
    Snowmelt ............... NO
    Groundwater ............ NO
    Flow Routing ........... YES
    Ponding Allowed ........ NO
    Water Quality .......... YES
  Infiltration Method ...... GREEN_AMPT
  Flow Routing Method ...... DYNWAVE
  Surcharge Method ......... EXTRAN
  Starting Date ............ 08/28/2015 08:00:00
  Ending Date .............. 08/28/2015 11:50:00
  Antecedent Dry Days ...... 4.0
  Report Time Step ......... 00:01:00
  Wet Time Step ............ 00:01:00
  Dry Time Step ............ 00:01:00
  Routing Time Step ........ 5.00 sec
  Variable Time Step ....... YES
  Maximum Trials ........... 8
  Number of Threads ........ 1
  Head Tolerance ........... 0.001500 m
  
  
  **************************        Volume         Depth
  Runoff Quantity Continuity     hectare-m            mm
  **************************     ---------       -------
  Total Precipitation ......         2.213        35.768
  Evaporation Loss .........         0.000         0.000
  Infiltration Loss ........         0.650        10.513
  Surface Runoff ...........         0.661        10.682
  Final Storage ............         0.902        14.574
  Continuity Error (%) .....        -0.004
  
  
  **************************           COD         NH3-N            TN            TP            SS
  Runoff Quality Continuity             kg            kg            kg            kg            kg
  **************************    ----------    ----------    ----------    ----------    ----------
  Initial Buildup ..........      2504.640         0.000         0.000         0.000         0.000
  Surface Buildup ..........        19.335         0.000         0.000         0.000         0.000
  Wet Deposition ...........         0.000         0.000         0.000         0.000         0.000
  Sweeping Removal .........         0.000         0.000         0.000         0.000         0.000
  Infiltration Loss ........       177.646         0.000         0.000         0.000         0.000
  BMP Removal ..............         0.000         0.000         0.000         0.000         0.000
  Surface Runoff ...........      1330.127         0.000         0.000         0.000         0.000
  Remaining Buildup ........      1016.532         0.000         0.000         0.000         0.000
  Continuity Error (%) .....        -0.013         0.000         0.000         0.000         0.000
  
  
  **************************        Volume        Volume
  Flow Routing Continuity        hectare-m      10^6 ltr
  **************************     ---------     ---------
  Dry Weather Inflow .......         0.000         0.000
  Wet Weather Inflow .......         0.659         6.590
  Groundwater Inflow .......         0.000         0.000
  RDII Inflow ..............         0.000         0.000
  External Inflow ..........         0.082         0.822
  External Outflow .........         0.454         4.541
  Flooding Loss ............         0.221         2.208
  Evaporation Loss .........         0.000         0.000
  Exfiltration Loss ........         0.000         0.000
  Initial Stored Volume ....         0.000         0.000
  Final Stored Volume ......         0.062         0.625
  Continuity Error (%) .....         0.507
  
  
  **************************           COD         NH3-N            TN            TP            SS
  Quality Routing Continuity            kg            kg            kg            kg            kg
  **************************    ----------    ----------    ----------    ----------    ----------
  Dry Weather Inflow .......         0.000         0.000         0.000         0.000         0.000
  Wet Weather Inflow .......      1328.217         0.000         0.000         0.000         0.000
  Groundwater Inflow .......         0.000         0.000         0.000         0.000         0.000
  RDII Inflow ..............         0.000         0.000         0.000         0.000         0.000
  External Inflow ..........       137.263         0.000         0.000         0.000         0.000
  External Outflow .........       834.425         0.000         0.000         0.000         0.000
  Flooding Loss ............       545.017         0.000         0.000         0.000         0.000
  Exfiltration Loss ........         0.000         0.000         0.000         0.000         0.000
  Mass Reacted .............         0.000         0.000         0.000         0.000         0.000
  Initial Stored Mass ......         0.000         0.000         0.000         0.000         0.000
  Final Stored Mass ........        77.990         0.000         0.000         0.000         0.000
  Continuity Error (%) .....         0.549         0.000         0.000         0.000         0.000
  
  
  *************************
  Highest Continuity Errors
  *************************
  Node WS02006230 (5.09%)
  Node WS02006229 (3.13%)
  Node WS02006231 (2.84%)
  Node WS02006242 (1.80%)
  Node WS02006115 (1.76%)
  
  
  ***************************
  Time-Step Critical Elements
  ***************************
  Link 8 (89.87%)
  Link WSL2448 (8.12%)
  
  
  ********************************
  Highest Flow Instability Indexes
  ********************************
  Link WSL2302 (3)
  Link WSL2301 (3)
  Link WSL2297 (2)
  Link WSL2296 (2)
  Link WSL2493 (2)
  
  
  *************************
  Routing Time Step Summary
  *************************
  Minimum Time Step           :     0.34 sec
  Average Time Step           :     0.90 sec
  Maximum Time Step           :     5.00 sec
  Percent in Steady State     :    -0.00
  Average Iterations per Step :     2.13
  Percent Not Converging      :     1.14
  
  
  ***************************
  Subcatchment Runoff Summary
  ***************************
  
  ------------------------------------------------------------------------------------------------------------------------------
                            Total      Total      Total      Total     Imperv       Perv      Total       Total     Peak  Runoff
                           Precip      Runon       Evap      Infil     Runoff     Runoff     Runoff      Runoff   Runoff   Coeff
  Subcatchment                 mm         mm         mm         mm         mm         mm         mm    10^6 ltr      MLD
  ------------------------------------------------------------------------------------------------------------------------------
  1                         35.77      58.85       0.00      12.70      22.65      33.14      55.79        0.68    13.00   0.590
  2                         35.77       0.00       0.00       9.86       8.69       6.48      15.17        0.51    10.57   0.424
  3                         35.77       0.00       0.00       9.98       8.62       5.58      14.20        0.72    14.92   0.397
  35                        35.77       0.00       0.00       9.83       8.71       6.73      15.43        0.47     9.68   0.431
  36                        35.77      31.92       0.00      12.37      15.83      13.58      29.40        1.73    32.97   0.434
  40                        35.77       8.19       0.00      10.60      10.54       8.40      18.94        0.74    14.66   0.431
  41                        35.77       0.00       0.00       9.69       8.76       7.80      16.57        0.32     6.70   0.463
  42                        35.77       0.00       0.00       9.74       8.75       7.40      16.15        0.37     7.65   0.452
  43                        35.77       0.00       0.00       8.98       8.88      12.25      21.13        0.08     1.67   0.591
  44                        35.77     486.23       0.00      19.82     128.22     311.80     440.02        1.63    32.71   0.843
  45                        35.77       0.00       0.00       9.45       8.82       9.44      18.26        0.19     3.98   0.511
  46                        35.77      26.91       0.00      11.61      15.01      16.93      31.95        0.68    13.21   0.510
  47                        35.77       0.00       0.00       9.48       8.82       9.24      18.06        0.20     4.23   0.505
  48                        35.77      12.65       0.00      10.57      11.74      12.95      24.69        0.39     7.72   0.510
  55                        35.77      18.99       0.00      10.65      13.35      18.27      31.62        0.26     5.23   0.577
  56                        35.77      29.37       0.00      11.75      15.60      17.88      33.48        0.72    13.88   0.514
  57                        35.77       0.00       0.00       9.97       8.62       5.62      14.24        0.71    14.67   0.398
  59                        35.77       0.00       0.00       9.37       8.84       9.99      18.82        0.16     3.36   0.526
  60                        35.77      41.06       0.00      11.49      18.76      31.77      50.53        0.26     5.31   0.658
  61                        35.77       0.00       0.00      10.23       8.27       3.37      11.64        2.09    42.82   0.325
  64                        35.77       0.00       0.00       9.51       8.81       9.04      17.85        0.21     4.51   0.499
  
  
  ****************************
  Subcatchment Washoff Summary
  ****************************
  
  ------------------------------------------------------------------------------------------
                                 COD         NH3-N            TN            TP            SS
  Subcatchment                    kg            kg            kg            kg            kg
  ------------------------------------------------------------------------------------------
  1                          111.716         0.000         0.000         0.000         0.000
  2                            0.000         0.000         0.000         0.000         0.000
  3                            0.000         0.000         0.000         0.000         0.000
  35                         112.832         0.000         0.000         0.000         0.000
  36                         488.701         0.000         0.000         0.000         0.000
  40                         196.051         0.000         0.000         0.000         0.000
  41                          75.998         0.000         0.000         0.000         0.000
  42                          87.770         0.000         0.000         0.000         0.000
  43                          15.919         0.000         0.000         0.000         0.000
  44                         468.908         0.000         0.000         0.000         0.000
  45                          42.773         0.000         0.000         0.000         0.000
  46                         174.461         0.000         0.000         0.000         0.000
  47                          45.818         0.000         0.000         0.000         0.000
  48                          96.018         0.000         0.000         0.000         0.000
  55                          60.679         0.000         0.000         0.000         0.000
  56                         178.911         0.000         0.000         0.000         0.000
  57                         174.395         0.000         0.000         0.000         0.000
  59                          35.422         0.000         0.000         0.000         0.000
  60                          59.854         0.000         0.000         0.000         0.000
  61                         514.428         0.000         0.000         0.000         0.000
  64                          49.210         0.000         0.000         0.000         0.000
  ------------------------------------------------------------------------------------------
  System                    2989.864         0.000         0.000         0.000         0.000
  
  
  ******************
  Node Depth Summary
  ******************
  
  ---------------------------------------------------------------------------------
                                 Average  Maximum  Maximum  Time of Max    Reported
                                   Depth    Depth      HGL   Occurrence   Max Depth
  Node                 Type       Meters   Meters   Meters  days hr:min      Meters
  ---------------------------------------------------------------------------------
  WS01000070           JUNCTION     0.00     0.00     0.00     0  00:00        0.00
  WS01000323           JUNCTION     0.00     0.00     0.00     0  00:00        0.00
  WS01000533           JUNCTION     0.00     0.00     6.86     0  00:00        0.00
  WS01005172           JUNCTION     0.00     0.00     0.00     0  00:00        0.00
  WS01005181           JUNCTION     0.00     0.00     0.00     0  00:00        0.00
  WS01009841           JUNCTION     0.00     0.00     0.00     0  00:00        0.00
  WS02000078           JUNCTION     0.00     0.00     0.00     0  00:00        0.00
  WS02000112           JUNCTION     0.00     0.00     0.00     0  00:00        0.00
  WS02000136           JUNCTION     0.00     0.00     0.00     0  00:00        0.00
  WS02004053           JUNCTION     0.00     0.00     0.00     0  00:00        0.00
  WS02004401           JUNCTION     2.21     2.41     8.41     0  03:00        2.41
  WS02005192           JUNCTION     0.48     0.62     8.49     0  02:49        0.62
  WS02005193           JUNCTION     0.51     0.65     8.47     0  02:51        0.65
  WS02005196           JUNCTION     0.49     0.63     8.48     0  02:50        0.63
  WS02006109           JUNCTION     1.66     1.91     8.53     0  03:00        1.91
  WS02006110           JUNCTION     1.67     1.92     8.52     0  03:00        1.91
  WS02006111           JUNCTION     1.67     1.89     8.47     0  03:00        1.88
  WS02006112           JUNCTION     2.11     2.32     8.44     0  03:00        2.32
  WS02006113           JUNCTION     1.67     1.91     8.50     0  03:00        1.91
  WS02006115           JUNCTION     2.12     2.33     8.43     0  03:00        2.33
  WS02006116           JUNCTION     2.18     2.38     8.42     0  03:00        2.38
  WS02006183           JUNCTION     0.00     0.00     0.00     0  00:00        0.00
  WS02006228           JUNCTION     1.63     1.89     8.54     0  03:00        1.89
  WS02006229           JUNCTION     1.59     1.85     8.54     0  03:00        1.85
  WS02006230           JUNCTION     1.53     1.79     8.54     0  03:00        1.79
  WS02006231           JUNCTION     1.39     1.64     8.54     0  03:00        1.64
  WS02006232           JUNCTION     1.27     1.51     8.54     0  03:00        1.51
  WS02006234           JUNCTION     1.14     1.37     8.53     0  03:00        1.36
  WS02006235           JUNCTION     1.13     1.35     8.52     0  03:00        1.35
  WS02006238           JUNCTION     1.12     1.34     8.52     0  03:00        1.34
  WS02006239           JUNCTION     1.09     1.30     8.51     0  03:00        1.30
  WS02006242           JUNCTION     1.00     1.19     8.49     0  03:00        1.18
  WS02006240           JUNCTION     1.01     1.21     8.50     0  03:00        1.21
  WS02006243           JUNCTION     0.88     1.05     8.47     0  03:00        1.05
  WS02006245           JUNCTION     0.81     0.97     8.46     0  03:00        0.97
  WS02006247           JUNCTION     0.79     0.94     8.45     0  03:00        0.94
  WS02006248           JUNCTION     0.71     0.84     8.43     0  03:00        0.84
  WS02006249           JUNCTION     0.70     0.83     8.43     0  03:00        0.83
  WS02006251           JUNCTION     0.64     0.78     8.45     0  02:54        0.78
  WS02006253           JUNCTION     0.53     0.66     8.46     0  02:53        0.66
  WS02618401           JUNCTION     0.00     0.00     0.00     0  00:00        0.00
  WSA1649              JUNCTION     0.00     0.00     0.00     0  00:00        0.00
  outfall-5            OUTFALL      0.16     0.24     7.90     0  03:00        0.24
  outfall-14           OUTFALL      0.14     0.21     7.87     0  03:00        0.21
  outfall-16           OUTFALL      0.00     0.00     8.39     0  00:00        0.00
  CC-storage           STORAGE      5.38     5.63     8.81     0  01:30        5.63
  
  
  *******************
  Node Inflow Summary
  *******************
  
  -------------------------------------------------------------------------------------------------
                                  Maximum  Maximum                  Lateral       Total        Flow
                                  Lateral    Total  Time of Max      Inflow      Inflow     Balance
                                   Inflow   Inflow   Occurrence      Volume      Volume       Error
  Node                 Type           MLD      MLD  days hr:min    10^6 ltr    10^6 ltr     Percent
  -------------------------------------------------------------------------------------------------
  WS01000070           JUNCTION      0.00     0.00     0  00:00           0           0       0.000 ltr
  WS01000323           JUNCTION      0.00     0.00     0  00:00           0           0       0.000 ltr
  WS01000533           JUNCTION      0.00     0.00     0  00:00           0           0       0.000 ltr
  WS01005172           JUNCTION      0.00     0.00     0  00:00           0           0       0.000 ltr
  WS01005181           JUNCTION      0.00     0.00     0  00:00           0           0       0.000 ltr
  WS01009841           JUNCTION      0.00     0.00     0  00:00           0           0       0.000 ltr
  WS02000078           JUNCTION      0.00     0.00     0  00:00           0           0       0.000 ltr
  WS02000112           JUNCTION      0.00     0.00     0  00:00           0           0       0.000 ltr
  WS02000136           JUNCTION      0.00     0.00     0  00:00           0           0       0.000 ltr
  WS02004053           JUNCTION      0.00     0.00     0  00:00           0           0       0.000 ltr
  WS02004401           JUNCTION      0.05    40.99     0  03:00      0.0086        2.09       1.393
  WS02005192           JUNCTION     14.77    14.77     0  02:46       0.728       0.728       0.384
  WS02005193           JUNCTION      0.09    14.96     0  02:45       0.014       0.754       1.038
  WS02005196           JUNCTION      0.12    14.88     0  02:45      0.0183       0.743       0.973
  WS02006109           JUNCTION      0.08    26.63     0  03:01      0.0129        1.47       1.659
  WS02006110           JUNCTION      0.08    26.70     0  03:01      0.0126        1.46       1.688
  WS02006111           JUNCTION      0.24    40.49     0  03:00      0.0352        2.13       0.970
  WS02006112           JUNCTION      0.18    40.65     0  03:00      0.0263        2.13       1.534
  WS02006113           JUNCTION     15.07    40.29     0  03:00       0.748        2.15       1.102
  WS02006115           JUNCTION      0.08    40.73     0  03:00      0.0129        2.12       1.792
  WS02006116           JUNCTION      0.24    40.94     0  03:00      0.0347        2.12       1.637
  WS02006183           JUNCTION      0.00     0.00     0  00:00           0           0       0.000 ltr
  WS02006228           JUNCTION     32.86    32.86     0  03:01        1.65         1.8       1.002
  WS02006229           JUNCTION      0.13     7.00     0  03:07      0.0193       0.504       3.230
  WS02006230           JUNCTION      0.07     7.07     0  03:07      0.0111       0.515       5.368
  WS02006231           JUNCTION      0.13     7.28     0  03:06      0.0197       0.523       2.926
  WS02006232           JUNCTION     10.65    16.35     0  03:00       0.523        1.02       1.513
  WS02006234           JUNCTION      0.14    16.46     0  03:00      0.0208        1.01       1.371
  WS02006235           JUNCTION      0.14    16.58     0  03:00      0.0215        1.01       0.767
  WS02006238           JUNCTION      0.15    16.70     0  03:00      0.0226        1.01       0.987
  WS02006239           JUNCTION      0.11    16.79     0  03:00      0.0167        1.01       1.523
  WS02006242           JUNCTION      0.08    16.93     0  03:00      0.0124        1.02       1.829
  WS02006240           JUNCTION      0.06    16.86     0  03:00     0.00952        1.01       1.643
  WS02006243           JUNCTION      0.17    17.08     0  03:00      0.0259        1.03       1.690
  WS02006245           JUNCTION      0.07    17.15     0  03:00      0.0109        1.02       1.310
  WS02006247           JUNCTION     13.13    30.25     0  03:00       0.696        1.68       0.675
  WS02006248           JUNCTION      0.12    49.53     0  03:00      0.0185        2.61       0.421
  WS02006249           JUNCTION      0.19    20.44     0  02:46      0.0275        1.07       1.386
  WS02006251           JUNCTION      5.29    20.28     0  02:46       0.271        1.04       1.458
  WS02006253           JUNCTION      0.11    15.06     0  02:45      0.0166        0.77       1.029
  WS02618401           JUNCTION      0.00     0.00     0  00:00           0           0       0.000 ltr
  WSA1649              JUNCTION      0.00     0.00     0  00:00           0           0       0.000 ltr
  outfall-5            OUTFALL       0.00    49.53     0  03:00           0        2.49       0.000
  outfall-14           OUTFALL       0.00    40.99     0  03:00           0        2.05       0.000
  outfall-16           OUTFALL       0.00     0.00     0  00:00           0           0       0.000 ltr
  CC-storage           STORAGE      44.44    44.44     0  02:48        2.37        2.37       0.004
  
  
  **********************
  Node Surcharge Summary
  **********************
  
  Surcharging occurs when water rises above the top of the highest conduit.
  ---------------------------------------------------------------------
                                               Max. Height   Min. Depth
                                   Hours       Above Crown    Below Rim
  Node                 Type      Surcharged         Meters       Meters
  ---------------------------------------------------------------------
  WS01000070           JUNCTION        3.83          0.000        0.000
  WS01000323           JUNCTION        3.83          0.000        0.000
  WS01000533           JUNCTION        3.83          0.000        2.147
  WS01005172           JUNCTION        3.83          0.000        0.000
  WS01005181           JUNCTION        3.83          0.000        0.000
  WS01009841           JUNCTION        3.83          0.000        0.000
  WS02000078           JUNCTION        3.83          0.000        0.000
  WS02000112           JUNCTION        3.83          0.000        0.000
  WS02000136           JUNCTION        3.83          0.000        0.000
  WS02004053           JUNCTION        3.83          0.000        0.000
  WS02005192           JUNCTION        0.37          0.023        2.796
  WS02005193           JUNCTION        0.51          0.047        2.570
  WS02005196           JUNCTION        0.41          0.032        2.674
  WS02006109           JUNCTION        2.30          1.111        0.727
  WS02006110           JUNCTION        2.30          1.116        0.729
  WS02006111           JUNCTION        2.31          1.086        0.791
  WS02006112           JUNCTION        2.47          1.322        0.361
  WS02006113           JUNCTION        2.31          1.111        0.822
  WS02006115           JUNCTION        2.49          1.328        0.971
  WS02006116           JUNCTION        2.55          1.379        0.971
  WS02006183           JUNCTION        3.83          0.000        0.000
  WS02006228           JUNCTION        2.29          1.094        1.137
  WS02006229           JUNCTION        2.27          1.053        1.401
  WS02006231           JUNCTION        2.22          0.938        0.605
  WS02006232           JUNCTION        2.17          0.807        0.682
  WS02006234           JUNCTION        2.13          0.668        0.589
  WS02006235           JUNCTION        2.13          0.651        0.643
  WS02006238           JUNCTION        2.12          0.639        0.795
  WS02006239           JUNCTION        2.10          0.599        0.730
  WS02006242           JUNCTION        2.07          0.487        0.362
  WS02006240           JUNCTION        2.08          0.509        0.894
  WS02006243           JUNCTION        2.05          0.353        0.427
  WS02006245           JUNCTION        2.02          0.272        0.583
  WS02006247           JUNCTION        2.02          0.243        0.517
  WS02006249           JUNCTION        1.95          0.134        0.254
  WS02006251           JUNCTION        0.91          0.082        1.428
  WS02618401           JUNCTION        3.83          0.000        0.000
  WSA1649              JUNCTION        3.83          0.000        0.000
  
  
  *********************
  Node Flooding Summary
  *********************
  
  Flooding refers to all water that overflows a node, whether it ponds or not.
  --------------------------------------------------------------------------
                                                             Total   Maximum
                                 Maximum   Time of Max       Flood    Ponded
                        Hours       Rate    Occurrence      Volume     Depth
  Node                 Flooded       MLD   days hr:min    10^6 ltr    Meters
  --------------------------------------------------------------------------
  CC-storage              2.33     44.44      0  02:48       2.209     0.000
  
  
  **********************
  Storage Volume Summary
  **********************
  
  --------------------------------------------------------------------------------------------------
                         Average     Avg  Evap Exfil       Maximum     Max    Time of Max    Maximum
                          Volume    Pcnt  Pcnt  Pcnt        Volume    Pcnt     Occurrence    Outflow
  Storage Unit           1000 m3    Full  Loss  Loss       1000 m3    Full    days hr:min        MLD
  --------------------------------------------------------------------------------------------------
  CC-storage               0.152      96     0     0         0.159     100       0  01:30       0.00
  
  
  ***********************
  Outfall Loading Summary
  ***********************
  
  ---------------------------------------------------------------------------------------------------------------------------------
                         Flow       Avg       Max       Total         Total         Total         Total         Total         Total
                         Freq      Flow      Flow      Volume           COD         NH3-N            TN            TP            SS
  Outfall Node           Pcnt       MLD       MLD    10^6 ltr            kg            kg            kg            kg            kg
  ---------------------------------------------------------------------------------------------------------------------------------
  outfall-5             90.11     30.37     49.53       2.487       451.005         0.000         0.000         0.000         0.000
  outfall-14            90.16     25.10     40.99       2.054       383.443         0.000         0.000         0.000         0.000
  outfall-16             0.00      0.00      0.00       0.000         0.000         0.000         0.000         0.000         0.000
  ---------------------------------------------------------------------------------------------------------------------------------
  System                60.09     55.47     90.52       4.541       834.448         0.000         0.000         0.000         0.000
  
  
  ********************
  Link Flow Summary
  ********************
  
  -----------------------------------------------------------------------------
                                 Maximum  Time of Max   Maximum    Max/    Max/
                                  |Flow|   Occurrence   |Veloc|    Full    Full
  Link                 Type          MLD  days hr:min     m/sec    Flow   Depth
  -----------------------------------------------------------------------------
  WSL2038              CONDUIT     14.77     0  02:45      0.62    0.74    1.00
  WSL2039              CONDUIT     14.96     0  02:45      0.94    0.77    1.00
  WSL2041              CONDUIT     14.88     0  02:45      0.70    0.73    1.00
  WSL2294              CONDUIT     26.63     0  03:01      0.61    0.89    1.00
  WSL2295              CONDUIT     26.70     0  03:01      0.61    1.20    1.00
  WSL2296              CONDUIT     40.49     0  03:00      0.93    0.23    1.00
  WSL2297              CONDUIT     40.65     0  03:00      0.60    0.78    1.00
  WSL2298              CONDUIT     40.29     0  03:00      0.93    1.85    1.00
  WSL2301              CONDUIT     40.73     0  03:00      0.60    0.38    1.00
  WSL2302              CONDUIT     40.94     0  03:00      0.60    0.50    1.00
  WSL2441              CONDUIT     26.55     0  03:01      0.61    0.68    1.00
  WSL2442              CONDUIT      7.00     0  03:07      0.63    0.18    1.00
  WSL2443              CONDUIT      7.17     0  03:06      0.73    0.11    1.00
  WSL2444              CONDUIT      7.28     0  03:06      0.94    0.12    1.00
  WSL2446              CONDUIT     16.35     0  03:00      0.89    0.28    1.00
  WSL2447              CONDUIT     16.46     0  03:00      0.82    0.85    1.00
  WSL2448              CONDUIT     16.57     0  03:00      0.68    0.47    1.00
  WSL2449              CONDUIT     16.70     0  03:00      0.65    0.58    1.00
  WSL2450              CONDUIT     16.80     0  03:00      0.74    0.35    1.00
  WSL2451              CONDUIT     16.86     0  03:00      0.73    1.10    1.00
  WSL2452              CONDUIT     16.93     0  03:00      0.76    0.32    1.00
  WSL2454              CONDUIT     17.08     0  03:00      0.92    0.40    1.00
  WSL2478              CONDUIT     17.15     0  03:00      0.80    0.61    1.00
  WSL2479              CONDUIT     30.26     0  03:00      0.91    0.58    1.00
  WSL2480              CONDUIT     20.44     0  02:46      0.78    0.95    1.00
  WSL2482              CONDUIT     20.28     0  02:46      0.70    0.53    1.00
  WSL2484              CONDUIT     15.04     0  02:46      0.78    0.21    0.97
  WSL2493              CONDUIT      6.89     0  03:07      0.51    0.12    1.00
  8                    CONDUIT     49.53     0  03:00      7.44    0.65    0.59
  19                   CONDUIT      0.00     0  00:00      0.00    0.00    0.00
  17                   CONDUIT     40.99     0  03:00      7.20    0.53    0.52
  CC-Pump-1            PUMP         0.00     0  00:00              0.00
  CC-Pump-2            PUMP         0.00     0  00:00              0.00
  
  
  ***************************
  Flow Classification Summary
  ***************************
  
  -------------------------------------------------------------------------------------
                      Adjusted    ---------- Fraction of Time in Flow Class ---------- 
                       /Actual         Up    Down  Sub   Sup   Up    Down  Norm  Inlet 
  Conduit               Length    Dry  Dry   Dry   Crit  Crit  Crit  Crit  Ltd   Ctrl  
  -------------------------------------------------------------------------------------
  WSL2038                 1.00   0.00  0.00  0.00  1.00  0.00  0.00  0.00  0.01  0.00
  WSL2039                 1.00   0.00  0.00  0.00  0.98  0.02  0.00  0.00  0.00  0.00
  WSL2041                 1.00   0.00  0.00  0.00  1.00  0.00  0.00  0.00  0.29  0.00
  WSL2294                 1.00   0.00  0.00  0.00  1.00  0.00  0.00  0.00  0.00  0.00
  WSL2295                 1.00   0.00  0.00  0.00  1.00  0.00  0.00  0.00  0.00  0.00
  WSL2296                 1.00   0.00  0.00  0.00  1.00  0.00  0.00  0.00  0.17  0.00
  WSL2297                 1.00   0.00  0.00  0.00  1.00  0.00  0.00  0.00  0.00  0.00
  WSL2298                 1.00   0.00  0.00  0.00  0.98  0.02  0.00  0.00  0.00  0.00
  WSL2301                 1.00   0.00  0.00  0.00  1.00  0.00  0.00  0.00  0.04  0.00
  WSL2302                 1.00   0.00  0.00  0.00  1.00  0.00  0.00  0.00  0.01  0.00
  WSL2441                 1.00   0.00  0.00  0.00  1.00  0.00  0.00  0.00  0.00  0.00
  WSL2442                 1.00   0.00  0.00  0.00  1.00  0.00  0.00  0.00  0.17  0.00
  WSL2443                 1.00   0.00  0.00  0.00  1.00  0.00  0.00  0.00  0.30  0.00
  WSL2444                 1.00   0.00  0.00  0.00  0.94  0.06  0.00  0.00  0.22  0.00
  WSL2446                 1.00   0.00  0.00  0.00  0.95  0.05  0.00  0.00  0.02  0.00
  WSL2447                 1.00   0.00  0.00  0.00  1.00  0.00  0.00  0.00  0.00  0.00
  WSL2448                 1.00   0.00  0.00  0.00  1.00  0.00  0.00  0.00  0.00  0.00
  WSL2449                 1.00   0.00  0.00  0.00  1.00  0.00  0.00  0.00  0.03  0.00
  WSL2450                 1.00   0.00  0.00  0.00  1.00  0.00  0.00  0.00  0.38  0.00
  WSL2451                 1.00   0.00  0.00  0.00  1.00  0.00  0.00  0.00  0.00  0.00
  WSL2452                 1.00   0.00  0.00  0.00  1.00  0.00  0.00  0.00  0.41  0.00
  WSL2454                 1.00   0.00  0.00  0.00  1.00  0.00  0.00  0.00  0.02  0.00
  WSL2478                 1.00   0.00  0.00  0.00  1.00  0.00  0.00  0.00  0.00  0.00
  WSL2479                 1.00   0.00  0.00  0.00  1.00  0.00  0.00  0.00  0.42  0.00
  WSL2480                 1.00   0.00  0.00  0.00  1.00  0.00  0.00  0.00  0.00  0.00
  WSL2482                 1.00   0.00  0.00  0.00  1.00  0.00  0.00  0.00  0.40  0.00
  WSL2484                 1.00   0.00  0.00  0.00  1.00  0.00  0.00  0.00  0.44  0.00
  WSL2493                 1.00   0.00  0.00  0.00  1.00  0.00  0.00  0.00  0.05  0.00
  8                       1.00   0.10  0.00  0.00  0.00  0.90  0.00  0.00  0.01  0.00
  19                      1.00   1.00  0.00  0.00  0.00  0.00  0.00  0.00  0.00  0.00
  17                      1.00   0.10  0.00  0.00  0.00  0.90  0.00  0.00  0.00  0.00
  
  
  *************************
  Conduit Surcharge Summary
  *************************
  
  ----------------------------------------------------------------------------
                                                           Hours        Hours 
                         --------- Hours Full --------   Above Full   Capacity
  Conduit                Both Ends  Upstream  Dnstream   Normal Flow   Limited
  ----------------------------------------------------------------------------
  WSL2038                     0.37      0.37      0.41      0.01         0.01
  WSL2039                     0.51      0.51      0.60      0.01         0.01
  WSL2041                     0.41      0.41      0.51      0.01         0.01
  WSL2294                     2.30      2.30      2.30      0.01         0.01
  WSL2295                     2.30      2.30      2.31      0.48         0.49
  WSL2296                     2.31      2.31      2.74      0.01         0.01
  WSL2297                     2.47      2.47      2.49      0.01         0.01
  WSL2298                     2.31      2.31      2.31      1.09         1.10
  WSL2301                     2.49      2.49      2.55      0.01         0.01
  WSL2302                     2.55      2.55      2.61      0.01         0.01
  WSL2441                     2.29      2.29      2.30      0.01         0.01
  WSL2442                     2.29      2.29      2.30      0.01         0.01
  WSL2443                     2.22      2.22      2.29      0.01         0.01
  WSL2444                     2.17      2.17      2.22      0.01         0.01
  WSL2446                     2.13      2.13      2.17      0.01         0.01
  WSL2447                     2.13      2.13      2.13      0.01         0.01
  WSL2448                     2.12      2.12      2.13      0.01         0.01
  WSL2449                     2.10      2.10      2.12      0.01         0.01
  WSL2450                     2.08      2.08      2.10      0.01         0.01
  WSL2451                     2.07      2.07      2.08      0.32         0.01
  WSL2452                     2.05      2.05      2.07      0.01         0.01
  WSL2454                     2.02      2.02      2.05      0.01         0.01
  WSL2478                     2.02      2.02      2.02      0.01         0.01
  WSL2479                     1.99      1.99      2.02      0.01         0.01
  WSL2480                     1.95      1.95      1.99      0.01         0.01
  WSL2482                     0.91      0.91      1.95      0.01         0.01
  WSL2484                     0.01      0.01      0.91      0.01         0.01
  WSL2493                     2.27      2.27      2.29      0.01         0.01
  
  
  ***************
  Pumping Summary
  ***************
  
  ---------------------------------------------------------------------------------------------------------
                                                  Min       Avg       Max     Total     Power    % Time Off
                        Percent   Number of      Flow      Flow      Flow    Volume     Usage    Pump Curve
  Pump                 Utilized   Start-Ups       MLD       MLD       MLD  10^6 ltr     Kw-hr    Low   High
  ---------------------------------------------------------------------------------------------------------
  CC-Pump-1                0.00           0      0.00      0.00      0.00     0.000      0.00    0.0    0.0
  CC-Pump-2                0.00           0      0.00      0.00      0.00     0.000      0.00    0.0    0.0
  
  
  ***************************
  Link Pollutant Load Summary
  ***************************
  
  ------------------------------------------------------------------------------------------
                                 COD         NH3-N            TN            TP            SS
  Link                            kg            kg            kg            kg            kg
  ------------------------------------------------------------------------------------------
  WSL2038                    177.425         0.000         0.000         0.000         0.000
  WSL2039                    183.098         0.000         0.000         0.000         0.000
  WSL2041                    180.309         0.000         0.000         0.000         0.000
  WSL2294                    394.355         0.000         0.000         0.000         0.000
  WSL2295                    387.559         0.000         0.000         0.000         0.000
  WSL2296                    389.711         0.000         0.000         0.000         0.000
  WSL2297                    389.654         0.000         0.000         0.000         0.000
  WSL2298                    385.938         0.000         0.000         0.000         0.000
  WSL2301                    388.009         0.000         0.000         0.000         0.000
  WSL2302                    388.763         0.000         0.000         0.000         0.000
  WSL2441                    400.657         0.000         0.000         0.000         0.000
  WSL2442                    119.445         0.000         0.000         0.000         0.000
  WSL2443                    117.204         0.000         0.000         0.000         0.000
  WSL2444                    116.911         0.000         0.000         0.000         0.000
  WSL2446                    116.939         0.000         0.000         0.000         0.000
  WSL2447                    116.990         0.000         0.000         0.000         0.000
  WSL2448                    117.217         0.000         0.000         0.000         0.000
  WSL2449                    117.263         0.000         0.000         0.000         0.000
  WSL2450                    117.185         0.000         0.000         0.000         0.000
  WSL2451                    117.207         0.000         0.000         0.000         0.000
  WSL2452                    117.819         0.000         0.000         0.000         0.000
  WSL2454                    118.091         0.000         0.000         0.000         0.000
  WSL2478                    117.958         0.000         0.000         0.000         0.000
  WSL2479                    228.088         0.000         0.000         0.000         0.000
  WSL2480                    252.770         0.000         0.000         0.000         0.000
  WSL2482                    248.562         0.000         0.000         0.000         0.000
  WSL2484                    186.964         0.000         0.000         0.000         0.000
  WSL2493                    118.628         0.000         0.000         0.000         0.000
  8                          451.005         0.000         0.000         0.000         0.000
  19                           0.000         0.000         0.000         0.000         0.000
  17                         383.443         0.000         0.000         0.000         0.000
  CC-Pump-1                    0.000         0.000         0.000         0.000         0.000
  CC-Pump-2                    0.000         0.000         0.000         0.000         0.000
  

  Analysis begun on:  Mon Aug 19 11:19:14 2019
  Analysis ended on:  Mon Aug 19 11:19:14 2019
  Total elapsed time: < 1 sec