
  EPA STORM WATER MANAGEMENT MODEL - VERSION 5.1 (Build 5.2.0.dev5)
  --------------------------------------------------------------

  
  *********************************************************
  NOTE: The summary statistics displayed in this report are
  based on results found at every computational time step,  
  not just on results from each reporting time step.
  *********************************************************
  
  ****************
  Analysis Options
  ****************
  Flow Units ............... MLD
  Process Models:
    Rainfall/Runoff ........ YES
    RDII ................... NO
    Snowmelt ............... NO
    Groundwater ............ NO
    Flow Routing ........... YES
    Ponding Allowed ........ NO
    Water Quality .......... YES
  Infiltration Method ...... GREEN_AMPT
  Flow Routing Method ...... DYNWAVE
  Surcharge Method ......... EXTRAN
  Starting Date ............ 08/28/2015 08:00:00
  Ending Date .............. 08/28/2015 11:50:00
  Antecedent Dry Days ...... 4.0
  Report Time Step ......... 00:01:00
  Wet Time Step ............ 00:01:00
  Dry Time Step ............ 00:01:00
  Routing Time Step ........ 5.00 sec
  Variable Time Step ....... YES
  Maximum Trials ........... 8
  Number of Threads ........ 1
  Head Tolerance ........... 0.001500 m
  
  
  **************************        Volume         Depth
  Runoff Quantity Continuity     hectare-m            mm
  **************************     ---------       -------
  Total Precipitation ......         0.874        14.121
  Evaporation Loss .........         0.000         0.000
  Infiltration Loss ........         0.437         7.072
  Surface Runoff ...........         0.168         2.720
  Final Storage ............         0.268         4.331
  Continuity Error (%) .....        -0.007
  
  
  **************************           COD         NH3-N            TN            TP            SS
  Runoff Quality Continuity             kg            kg            kg            kg            kg
  **************************    ----------    ----------    ----------    ----------    ----------
  Initial Buildup ..........      2504.640         0.000         0.000         0.000         0.000
  Surface Buildup ..........        19.767         0.000         0.000         0.000         0.000
  Wet Deposition ...........         0.000         0.000         0.000         0.000         0.000
  Sweeping Removal .........         0.000         0.000         0.000         0.000         0.000
  Infiltration Loss ........        55.262         0.000         0.000         0.000         0.000
  BMP Removal ..............         0.000         0.000         0.000         0.000         0.000
  Surface Runoff ...........       198.236         0.000         0.000         0.000         0.000
  Remaining Buildup ........      2270.133         0.000         0.000         0.000         0.000
  Continuity Error (%) .....         0.031         0.000         0.000         0.000         0.000
  
  
  **************************        Volume        Volume
  Flow Routing Continuity        hectare-m      10^6 ltr
  **************************     ---------     ---------
  Dry Weather Inflow .......         0.000         0.000
  Wet Weather Inflow .......         0.168         1.679
  Groundwater Inflow .......         0.000         0.000
  RDII Inflow ..............         0.000         0.000
  External Inflow ..........         0.082         0.822
  External Outflow .........         0.111         1.110
  Flooding Loss ............         0.073         0.731
  Evaporation Loss .........         0.000         0.000
  Exfiltration Loss ........         0.000         0.000
  Initial Stored Volume ....         0.000         0.000
  Final Stored Volume ......         0.062         0.619
  Continuity Error (%) .....         1.612
  
  
  **************************           COD         NH3-N            TN            TP            SS
  Quality Routing Continuity            kg            kg            kg            kg            kg
  **************************    ----------    ----------    ----------    ----------    ----------
  Dry Weather Inflow .......         0.000         0.000         0.000         0.000         0.000
  Wet Weather Inflow .......       197.779         0.000         0.000         0.000         0.000
  Groundwater Inflow .......         0.000         0.000         0.000         0.000         0.000
  RDII Inflow ..............         0.000         0.000         0.000         0.000         0.000
  External Inflow ..........       137.266         0.000         0.000         0.000         0.000
  External Outflow .........       140.785         0.000         0.000         0.000         0.000
  Flooding Loss ............        91.730         0.000         0.000         0.000         0.000
  Exfiltration Loss ........         0.000         0.000         0.000         0.000         0.000
  Mass Reacted .............         0.000         0.000         0.000         0.000         0.000
  Initial Stored Mass ......         0.000         0.000         0.000         0.000         0.000
  Final Stored Mass ........        95.132         0.000         0.000         0.000         0.000
  Continuity Error (%) .....         2.208         0.000         0.000         0.000         0.000
  
  
  *************************
  Highest Continuity Errors
  *************************
  Node WS02006230 (9.40%)
  Node WS02006115 (6.76%)
  Node WS02006229 (6.29%)
  Node WS02006116 (6.22%)
  Node WS02006110 (5.76%)
  
  
  ***************************
  Time-Step Critical Elements
  ***************************
  Link 8 (83.46%)
  Link WSL2448 (13.58%)
  
  
  ********************************
  Highest Flow Instability Indexes
  ********************************
  Link WSL2302 (4)
  Link WSL2301 (4)
  Link WSL2297 (3)
  Link WSL2296 (3)
  Link WSL2298 (2)
  
  
  *************************
  Routing Time Step Summary
  *************************
  Minimum Time Step           :     0.50 sec
  Average Time Step           :     1.29 sec
  Maximum Time Step           :     5.00 sec
  Percent in Steady State     :     0.00
  Average Iterations per Step :     2.07
  Percent Not Converging      :     0.39
  
  
  ***************************
  Subcatchment Runoff Summary
  ***************************
  
  ------------------------------------------------------------------------------------------------------------------------------
                            Total      Total      Total      Total     Imperv       Perv      Total       Total     Peak  Runoff
                           Precip      Runon       Evap      Infil     Runoff     Runoff     Runoff      Runoff   Runoff   Coeff
  Subcatchment                 mm         mm         mm         mm         mm         mm         mm    10^6 ltr      MLD
  ------------------------------------------------------------------------------------------------------------------------------
  1                         14.12      13.20       0.00       8.20       6.45       4.56      11.01        0.13     2.50   0.403
  2                         14.12       0.00       0.00       6.77       3.32       0.83       4.15        0.14     2.65   0.294
  3                         14.12       0.00       0.00       6.79       3.27       0.69       3.96        0.20     3.80   0.280
  35                        14.12       0.00       0.00       6.76       3.33       0.87       4.20        0.13     2.42   0.297
  36                        14.12       7.98       0.00       7.91       5.02       1.71       6.73        0.40     7.34   0.304
  40                        14.12       2.19       0.00       7.12       3.80       1.09       4.88        0.19     3.60   0.299
  41                        14.12       0.00       0.00       6.73       3.38       1.04       4.42        0.09     1.65   0.313
  42                        14.12       0.00       0.00       6.75       3.36       0.98       4.34        0.10     1.90   0.307
  43                        14.12       0.00       0.00       6.56       3.47       1.95       5.43        0.02     0.40   0.384
  44                        14.12     112.05       0.00      12.84      30.70      59.54      90.24        0.33     6.15   0.715
  45                        14.12       0.00       0.00       6.68       3.42       1.34       4.76        0.05     0.97   0.337
  46                        14.12       6.69       0.00       7.65       4.90       2.31       7.21        0.15     2.93   0.346
  47                        14.12       0.00       0.00       6.69       3.42       1.30       4.72        0.05     1.03   0.334
  48                        14.12       3.31       0.00       7.20       4.16       1.82       5.98        0.09     1.83   0.343
  55                        14.12       4.93       0.00       7.32       4.60       2.78       7.37        0.06     1.20   0.387
  56                        14.12       7.37       0.00       7.73       5.05       2.44       7.50        0.16     3.04   0.349
  57                        14.12       0.00       0.00       6.79       3.27       0.70       3.97        0.20     3.73   0.281
  59                        14.12       0.00       0.00       6.66       3.44       1.45       4.88        0.04     0.82   0.346
  60                        14.12      10.77       0.00       7.88       6.03       5.37      11.40        0.06     1.17   0.458
  61                        14.12       0.00       0.00       6.84       3.02       0.39       3.41        0.61    11.39   0.242
  64                        14.12       0.00       0.00       6.70       3.41       1.26       4.68        0.06     1.10   0.331
  
  
  ****************************
  Subcatchment Washoff Summary
  ****************************
  
  ------------------------------------------------------------------------------------------
                                 COD         NH3-N            TN            TP            SS
  Subcatchment                    kg            kg            kg            kg            kg
  ------------------------------------------------------------------------------------------
  1                           14.342         0.000         0.000         0.000         0.000
  2                            0.000         0.000         0.000         0.000         0.000
  3                            0.000         0.000         0.000         0.000         0.000
  35                          15.292         0.000         0.000         0.000         0.000
  36                          90.683         0.000         0.000         0.000         0.000
  40                          28.853         0.000         0.000         0.000         0.000
  41                          10.738         0.000         0.000         0.000         0.000
  42                          12.201         0.000         0.000         0.000         0.000
  43                           2.915         0.000         0.000         0.000         0.000
  44                          84.931         0.000         0.000         0.000         0.000
  45                           6.539         0.000         0.000         0.000         0.000
  46                          35.321         0.000         0.000         0.000         0.000
  47                           6.931         0.000         0.000         0.000         0.000
  48                          17.139         0.000         0.000         0.000         0.000
  55                          13.264         0.000         0.000         0.000         0.000
  56                          38.975         0.000         0.000         0.000         0.000
  57                          22.807         0.000         0.000         0.000         0.000
  59                           5.582         0.000         0.000         0.000         0.000
  60                          16.812         0.000         0.000         0.000         0.000
  61                          62.893         0.000         0.000         0.000         0.000
  64                           7.365         0.000         0.000         0.000         0.000
  ------------------------------------------------------------------------------------------
  System                     493.583         0.000         0.000         0.000         0.000
  
  
  ******************
  Node Depth Summary
  ******************
  
  ---------------------------------------------------------------------------------
                                 Average  Maximum  Maximum  Time of Max    Reported
                                   Depth    Depth      HGL   Occurrence   Max Depth
  Node                 Type       Meters   Meters   Meters  days hr:min      Meters
  ---------------------------------------------------------------------------------
  WS01000070           JUNCTION     0.00     0.00     0.00     0  00:00        0.00
  WS01000323           JUNCTION     0.00     0.00     0.00     0  00:00        0.00
  WS01000533           JUNCTION     0.00     0.00     6.86     0  00:00        0.00
  WS01005172           JUNCTION     0.00     0.00     0.00     0  00:00        0.00
  WS01005181           JUNCTION     0.00     0.00     0.00     0  00:00        0.00
  WS01009841           JUNCTION     0.00     0.00     0.00     0  00:00        0.00
  WS02000078           JUNCTION     0.00     0.00     0.00     0  00:00        0.00
  WS02000112           JUNCTION     0.00     0.00     0.00     0  00:00        0.00
  WS02000136           JUNCTION     0.00     0.00     0.00     0  00:00        0.00
  WS02004053           JUNCTION     0.00     0.00     0.00     0  00:00        0.00
  WS02004401           JUNCTION     2.07     2.30     8.30     0  03:01        2.30
  WS02005192           JUNCTION     0.36     0.45     8.32     0  02:09        0.45
  WS02005193           JUNCTION     0.40     0.49     8.31     0  02:08        0.48
  WS02005196           JUNCTION     0.37     0.46     8.31     0  02:08        0.45
  WS02006109           JUNCTION     1.48     1.69     8.31     0  03:00        1.69
  WS02006110           JUNCTION     1.49     1.71     8.31     0  03:00        1.71
  WS02006111           JUNCTION     1.51     1.73     8.31     0  03:00        1.72
  WS02006112           JUNCTION     1.96     2.18     8.30     0  03:00        2.18
  WS02006113           JUNCTION     1.50     1.72     8.31     0  03:00        1.72
  WS02006115           JUNCTION     1.98     2.20     8.30     0  03:00        2.20
  WS02006116           JUNCTION     2.03     2.26     8.30     0  03:00        2.26
  WS02006183           JUNCTION     0.00     0.00     0.00     0  00:00        0.00
  WS02006228           JUNCTION     1.45     1.66     8.31     0  03:00        1.66
  WS02006229           JUNCTION     1.41     1.62     8.31     0  03:00        1.62
  WS02006230           JUNCTION     1.35     1.56     8.31     0  03:01        1.56
  WS02006231           JUNCTION     1.21     1.41     8.31     0  03:00        1.41
  WS02006232           JUNCTION     1.09     1.28     8.31     0  03:00        1.28
  WS02006234           JUNCTION     0.98     1.15     8.31     0  03:00        1.15
  WS02006235           JUNCTION     0.97     1.14     8.31     0  03:00        1.14
  WS02006238           JUNCTION     0.96     1.13     8.31     0  03:00        1.13
  WS02006239           JUNCTION     0.94     1.10     8.31     0  03:00        1.10
  WS02006242           JUNCTION     0.86     1.01     8.31     0  03:00        1.00
  WS02006240           JUNCTION     0.86     1.02     8.31     0  03:00        1.02
  WS02006243           JUNCTION     0.75     0.88     8.30     0  03:00        0.88
  WS02006245           JUNCTION     0.68     0.81     8.30     0  03:00        0.81
  WS02006247           JUNCTION     0.67     0.79     8.30     0  03:00        0.79
  WS02006248           JUNCTION     0.59     0.71     8.30     0  03:01        0.71
  WS02006249           JUNCTION     0.59     0.70     8.30     0  03:00        0.70
  WS02006251           JUNCTION     0.53     0.63     8.30     0  03:01        0.63
  WS02006253           JUNCTION     0.41     0.50     8.30     0  03:01        0.50
  WS02618401           JUNCTION     0.00     0.00     0.00     0  00:00        0.00
  WSA1649              JUNCTION     0.00     0.00     0.00     0  00:00        0.00
  outfall-5            OUTFALL      0.08     0.11     7.78     0  03:01        0.11
  outfall-14           OUTFALL      0.07     0.10     7.76     0  03:01        0.10
  outfall-16           OUTFALL      0.00     0.00     8.39     0  00:00        0.00
  CC-storage           STORAGE      5.26     5.63     8.81     0  01:37        5.63
  
  
  *******************
  Node Inflow Summary
  *******************
  
  -------------------------------------------------------------------------------------------------
                                  Maximum  Maximum                  Lateral       Total        Flow
                                  Lateral    Total  Time of Max      Inflow      Inflow     Balance
                                   Inflow   Inflow   Occurrence      Volume      Volume       Error
  Node                 Type           MLD      MLD  days hr:min    10^6 ltr    10^6 ltr     Percent
  -------------------------------------------------------------------------------------------------
  WS01000070           JUNCTION      0.00     0.00     0  00:00           0           0       0.000 ltr
  WS01000323           JUNCTION      0.00     0.00     0  00:00           0           0       0.000 ltr
  WS01000533           JUNCTION      0.00     0.00     0  00:00           0           0       0.000 ltr
  WS01005172           JUNCTION      0.00     0.00     0  00:00           0           0       0.000 ltr
  WS01005181           JUNCTION      0.00     0.00     0  00:00           0           0       0.000 ltr
  WS01009841           JUNCTION      0.00     0.00     0  00:00           0           0       0.000 ltr
  WS02000078           JUNCTION      0.00     0.00     0  00:00           0           0       0.000 ltr
  WS02000112           JUNCTION      0.00     0.00     0  00:00           0           0       0.000 ltr
  WS02000136           JUNCTION      0.00     0.00     0  00:00           0           0       0.000 ltr
  WS02004053           JUNCTION      0.00     0.00     0  00:00           0           0       0.000 ltr
  WS02004401           JUNCTION      0.05    10.37     0  03:00      0.0086       0.527       5.608
  WS02005192           JUNCTION      3.82     3.82     0  03:01       0.215       0.215       1.082
  WS02005193           JUNCTION      0.09     4.01     0  03:01       0.014       0.242       2.833
  WS02005196           JUNCTION      0.12     3.92     0  03:01      0.0183       0.231       2.676
  WS02006109           JUNCTION      0.08     5.79     0  03:01      0.0129       0.437       5.872
  WS02006110           JUNCTION      0.08     5.86     0  03:01      0.0126       0.427       6.109
  WS02006111           JUNCTION      0.24     9.90     0  03:01      0.0352       0.575       3.715
  WS02006112           JUNCTION      0.18    10.05     0  03:01      0.0263       0.578       6.014
  WS02006113           JUNCTION      3.94     9.71     0  03:01       0.227       0.597       4.139
  WS02006115           JUNCTION      0.08    10.13     0  03:00      0.0129       0.561       7.248
  WS02006116           JUNCTION      0.24    10.32     0  03:00      0.0347       0.561       6.633
  WS02006183           JUNCTION      0.00     0.00     0  00:00           0           0       0.000 ltr
  WS02006228           JUNCTION      6.31     6.31     0  03:02        0.36       0.517       3.635
  WS02006229           JUNCTION      0.13     4.68     0  02:01      0.0193       0.256       6.714
  WS02006230           JUNCTION      0.07     4.79     0  02:01      0.0111       0.267      10.375
  WS02006231           JUNCTION      0.13     4.12     0  01:55      0.0197       0.274       5.831
  WS02006232           JUNCTION      2.73     5.36     0  01:55       0.153       0.405       3.929
  WS02006234           JUNCTION      0.14     5.46     0  01:55      0.0208       0.397       3.623
  WS02006235           JUNCTION      0.14     5.49     0  02:02      0.0215       0.393       2.058
  WS02006238           JUNCTION      0.15     5.45     0  01:57      0.0226       0.394       2.656
  WS02006239           JUNCTION      0.11     5.74     0  01:56      0.0167       0.392       4.044
  WS02006242           JUNCTION      0.08     5.47     0  01:58      0.0124       0.392       4.905
  WS02006240           JUNCTION      0.06     5.76     0  01:58     0.00952       0.389       4.405
  WS02006243           JUNCTION      0.17     5.44     0  02:03      0.0259       0.399       4.506
  WS02006245           JUNCTION      0.07     5.45     0  02:07      0.0109       0.388       3.522
  WS02006247           JUNCTION      2.64     7.08     0  03:01       0.157       0.511       2.270
  WS02006248           JUNCTION      0.12    12.67     0  03:01      0.0185       0.736       1.424
  WS02006249           JUNCTION      0.19     5.52     0  03:01      0.0275       0.354       4.126
  WS02006251           JUNCTION      1.26     5.35     0  03:01      0.0705       0.329       4.358
  WS02006253           JUNCTION      0.11     4.11     0  03:01      0.0166       0.257       2.714
  WS02618401           JUNCTION      0.00     0.00     0  00:00           0           0       0.000 ltr
  WSA1649              JUNCTION      0.00     0.00     0  00:00           0           0       0.000 ltr
  outfall-5            OUTFALL       0.00    12.67     0  03:01           0       0.618       0.000
  outfall-14           OUTFALL       0.00    10.37     0  03:01           0       0.492       0.000
  outfall-16           OUTFALL       0.00     0.00     0  00:00           0           0       0.000 ltr
  CC-storage           STORAGE      12.85    12.85     0  03:00        0.89        0.89       0.014
  
  
  **********************
  Node Surcharge Summary
  **********************
  
  Surcharging occurs when water rises above the top of the highest conduit.
  ---------------------------------------------------------------------
                                               Max. Height   Min. Depth
                                   Hours       Above Crown    Below Rim
  Node                 Type      Surcharged         Meters       Meters
  ---------------------------------------------------------------------
  WS01000070           JUNCTION        3.83          0.000        0.000
  WS01000323           JUNCTION        3.83          0.000        0.000
  WS01000533           JUNCTION        3.83          0.000        2.147
  WS01005172           JUNCTION        3.83          0.000        0.000
  WS01005181           JUNCTION        3.83          0.000        0.000
  WS01009841           JUNCTION        3.83          0.000        0.000
  WS02000078           JUNCTION        3.83          0.000        0.000
  WS02000112           JUNCTION        3.83          0.000        0.000
  WS02000136           JUNCTION        3.83          0.000        0.000
  WS02004053           JUNCTION        3.83          0.000        0.000
  WS02006109           JUNCTION        2.17          0.890        0.948
  WS02006110           JUNCTION        2.18          0.909        0.936
  WS02006111           JUNCTION        2.19          0.926        0.951
  WS02006112           JUNCTION        2.42          1.184        0.499
  WS02006113           JUNCTION        2.18          0.919        1.014
  WS02006115           JUNCTION        2.45          1.202        1.097
  WS02006116           JUNCTION        2.53          1.260        1.090
  WS02006183           JUNCTION        3.83          0.000        0.000
  WS02006228           JUNCTION        2.16          0.860        1.371
  WS02006229           JUNCTION        2.13          0.819        1.635
  WS02006231           JUNCTION        2.06          0.708        0.835
  WS02006232           JUNCTION        1.98          0.578        0.911
  WS02006234           JUNCTION        1.90          0.448        0.809
  WS02006235           JUNCTION        1.90          0.438        0.856
  WS02006238           JUNCTION        1.89          0.428        1.006
  WS02006239           JUNCTION        1.87          0.397        0.932
  WS02006242           JUNCTION        1.82          0.305        0.544
  WS02006240           JUNCTION        1.83          0.316        1.087
  WS02006243           JUNCTION        1.76          0.185        0.595
  WS02006245           JUNCTION        1.74          0.114        0.741
  WS02006247           JUNCTION        1.73          0.093        0.667
  WS02006249           JUNCTION        0.06          0.001        0.387
  WS02618401           JUNCTION        3.83          0.000        0.000
  WSA1649              JUNCTION        3.83          0.000        0.000
  
  
  *********************
  Node Flooding Summary
  *********************
  
  Flooding refers to all water that overflows a node, whether it ponds or not.
  --------------------------------------------------------------------------
                                                             Total   Maximum
                                 Maximum   Time of Max       Flood    Ponded
                        Hours       Rate    Occurrence      Volume     Depth
  Node                 Flooded       MLD   days hr:min    10^6 ltr    Meters
  --------------------------------------------------------------------------
  CC-storage              2.20     12.85      0  03:01       0.731     0.000
  
  
  **********************
  Storage Volume Summary
  **********************
  
  --------------------------------------------------------------------------------------------------
                         Average     Avg  Evap Exfil       Maximum     Max    Time of Max    Maximum
                          Volume    Pcnt  Pcnt  Pcnt        Volume    Pcnt     Occurrence    Outflow
  Storage Unit           1000 m3    Full  Loss  Loss       1000 m3    Full    days hr:min        MLD
  --------------------------------------------------------------------------------------------------
  CC-storage               0.149      93     0     0         0.159     100       0  01:37       0.00
  
  
  ***********************
  Outfall Loading Summary
  ***********************
  
  ---------------------------------------------------------------------------------------------------------------------------------
                         Flow       Avg       Max       Total         Total         Total         Total         Total         Total
                         Freq      Flow      Flow      Volume           COD         NH3-N            TN            TP            SS
  Outfall Node           Pcnt       MLD       MLD    10^6 ltr            kg            kg            kg            kg            kg
  ---------------------------------------------------------------------------------------------------------------------------------
  outfall-5             83.49      8.71     12.67       0.618        80.833         0.000         0.000         0.000         0.000
  outfall-14            83.47      6.95     10.37       0.492        59.960         0.000         0.000         0.000         0.000
  outfall-16             0.00      0.00      0.00       0.000         0.000         0.000         0.000         0.000         0.000
  ---------------------------------------------------------------------------------------------------------------------------------
  System                55.65     15.66     23.04       1.110       140.793         0.000         0.000         0.000         0.000
  
  
  ********************
  Link Flow Summary
  ********************
  
  -----------------------------------------------------------------------------
                                 Maximum  Time of Max   Maximum    Max/    Max/
                                  |Flow|   Occurrence   |Veloc|    Full    Full
  Link                 Type          MLD  days hr:min     m/sec    Flow   Depth
  -----------------------------------------------------------------------------
  WSL2038              CONDUIT      3.82     0  03:01      0.51    0.19    0.75
  WSL2039              CONDUIT      4.01     0  03:01      0.77    0.21    0.83
  WSL2041              CONDUIT      3.93     0  03:01      0.57    0.19    0.79
  WSL2294              CONDUIT      5.79     0  03:01      0.43    0.19    1.00
  WSL2295              CONDUIT      5.86     0  03:01      0.50    0.26    1.00
  WSL2296              CONDUIT      9.90     0  03:01      0.63    0.06    1.00
  WSL2297              CONDUIT     10.05     0  03:00      0.34    0.19    1.00
  WSL2298              CONDUIT      9.71     0  03:01      0.87    0.45    1.00
  WSL2301              CONDUIT     10.13     0  03:00      0.29    0.09    1.00
  WSL2302              CONDUIT     10.32     0  03:00      0.23    0.13    1.00
  WSL2441              CONDUIT      5.71     0  03:01      0.44    0.15    1.00
  WSL2442              CONDUIT      4.72     0  02:01      0.63    0.12    1.00
  WSL2443              CONDUIT      3.99     0  01:55      0.73    0.06    1.00
  WSL2444              CONDUIT      4.12     0  01:55      0.89    0.07    1.00
  WSL2446              CONDUIT      5.33     0  02:02      0.85    0.09    1.00
  WSL2447              CONDUIT      5.37     0  02:02      0.73    0.28    1.00
  WSL2448              CONDUIT      5.30     0  01:57      0.59    0.15    1.00
  WSL2449              CONDUIT      5.63     0  01:56      0.57    0.20    1.00
  WSL2450              CONDUIT      5.70     0  01:58      0.66    0.12    1.00
  WSL2451              CONDUIT      5.39     0  01:58      0.63    0.35    1.00
  WSL2452              CONDUIT      5.29     0  02:03      0.65    0.10    1.00
  WSL2454              CONDUIT      5.38     0  02:07      0.80    0.13    1.00
  WSL2478              CONDUIT      5.53     0  02:07      0.69    0.20    1.00
  WSL2479              CONDUIT      7.09     0  03:01      0.61    0.13    1.00
  WSL2480              CONDUIT      5.54     0  03:02      0.66    0.26    1.00
  WSL2482              CONDUIT      5.37     0  03:01      0.58    0.14    0.95
  WSL2484              CONDUIT      4.31     0  02:09      0.68    0.06    0.81
  WSL2493              CONDUIT      4.56     0  02:01      0.51    0.08    1.00
  8                    CONDUIT     12.67     0  03:01      5.18    0.17    0.28
  19                   CONDUIT      0.00     0  00:00      0.00    0.00    0.00
  17                   CONDUIT     10.37     0  03:01      4.94    0.13    0.25
  CC-Pump-1            PUMP         0.00     0  00:00              0.00
  CC-Pump-2            PUMP         0.00     0  00:00              0.00
  
  
  ***************************
  Flow Classification Summary
  ***************************
  
  -------------------------------------------------------------------------------------
                      Adjusted    ---------- Fraction of Time in Flow Class ---------- 
                       /Actual         Up    Down  Sub   Sup   Up    Down  Norm  Inlet 
  Conduit               Length    Dry  Dry   Dry   Crit  Crit  Crit  Crit  Ltd   Ctrl  
  -------------------------------------------------------------------------------------
  WSL2038                 1.00   0.00  0.00  0.00  1.00  0.00  0.00  0.00  0.01  0.00
  WSL2039                 1.00   0.00  0.00  0.00  1.00  0.00  0.00  0.00  0.00  0.00
  WSL2041                 1.00   0.00  0.00  0.00  1.00  0.00  0.00  0.00  0.32  0.00
  WSL2294                 1.00   0.00  0.00  0.00  1.00  0.00  0.00  0.00  0.00  0.00
  WSL2295                 1.00   0.00  0.00  0.00  1.00  0.00  0.00  0.00  0.00  0.00
  WSL2296                 1.00   0.00  0.00  0.00  1.00  0.00  0.00  0.00  0.17  0.00
  WSL2297                 1.00   0.00  0.00  0.00  1.00  0.00  0.00  0.00  0.00  0.00
  WSL2298                 1.00   0.00  0.00  0.00  0.98  0.02  0.00  0.00  0.00  0.00
  WSL2301                 1.00   0.00  0.00  0.00  1.00  0.00  0.00  0.00  0.04  0.00
  WSL2302                 1.00   0.00  0.00  0.00  1.00  0.00  0.00  0.00  0.01  0.00
  WSL2441                 1.00   0.00  0.00  0.00  1.00  0.00  0.00  0.00  0.00  0.00
  WSL2442                 1.00   0.00  0.00  0.00  1.00  0.00  0.00  0.00  0.17  0.00
  WSL2443                 1.00   0.00  0.00  0.00  1.00  0.00  0.00  0.00  0.31  0.00
  WSL2444                 1.00   0.00  0.00  0.00  0.92  0.08  0.00  0.00  0.24  0.00
  WSL2446                 1.00   0.00  0.00  0.00  0.91  0.09  0.00  0.00  0.03  0.00
  WSL2447                 1.00   0.00  0.00  0.00  1.00  0.00  0.00  0.00  0.00  0.00
  WSL2448                 1.00   0.00  0.00  0.00  1.00  0.00  0.00  0.00  0.00  0.00
  WSL2449                 1.00   0.00  0.00  0.00  1.00  0.00  0.00  0.00  0.03  0.00
  WSL2450                 1.00   0.00  0.00  0.00  1.00  0.00  0.00  0.00  0.43  0.00
  WSL2451                 1.00   0.00  0.00  0.00  1.00  0.00  0.00  0.00  0.00  0.00
  WSL2452                 1.00   0.00  0.00  0.00  1.00  0.00  0.00  0.00  0.44  0.00
  WSL2454                 1.00   0.00  0.00  0.00  1.00  0.00  0.00  0.00  0.02  0.00
  WSL2478                 1.00   0.00  0.00  0.00  1.00  0.00  0.00  0.00  0.00  0.00
  WSL2479                 1.00   0.00  0.00  0.00  1.00  0.00  0.00  0.00  0.48  0.00
  WSL2480                 1.00   0.00  0.00  0.00  1.00  0.00  0.00  0.00  0.00  0.00
  WSL2482                 1.00   0.00  0.00  0.00  1.00  0.00  0.00  0.00  0.49  0.00
  WSL2484                 1.00   0.00  0.00  0.00  1.00  0.00  0.00  0.00  0.50  0.00
  WSL2493                 1.00   0.00  0.00  0.00  1.00  0.00  0.00  0.00  0.05  0.00
  8                       1.00   0.17  0.00  0.00  0.00  0.83  0.00  0.00  0.01  0.00
  19                      1.00   1.00  0.00  0.00  0.00  0.00  0.00  0.00  0.00  0.00
  17                      1.00   0.17  0.00  0.00  0.00  0.83  0.00  0.00  0.00  0.00
  
  
  *************************
  Conduit Surcharge Summary
  *************************
  
  ----------------------------------------------------------------------------
                                                           Hours        Hours 
                         --------- Hours Full --------   Above Full   Capacity
  Conduit                Both Ends  Upstream  Dnstream   Normal Flow   Limited
  ----------------------------------------------------------------------------
  WSL2294                     2.17      2.17      2.18      0.01         0.01
  WSL2295                     2.18      2.18      2.18      0.01         0.01
  WSL2296                     2.19      2.19      2.74      0.01         0.01
  WSL2297                     2.42      2.42      2.45      0.01         0.01
  WSL2298                     2.18      2.18      2.19      0.01         0.01
  WSL2301                     2.45      2.45      2.53      0.01         0.01
  WSL2302                     2.53      2.53      2.60      0.01         0.01
  WSL2441                     2.16      2.16      2.17      0.01         0.01
  WSL2442                     2.15      2.15      2.19      0.01         0.01
  WSL2443                     2.06      2.06      2.15      0.01         0.01
  WSL2444                     1.98      1.98      2.06      0.01         0.01
  WSL2446                     1.90      1.90      1.98      0.01         0.01
  WSL2447                     1.90      1.90      1.90      0.01         0.01
  WSL2448                     1.89      1.89      1.90      0.01         0.01
  WSL2449                     1.87      1.87      1.89      0.01         0.01
  WSL2450                     1.83      1.83      1.87      0.01         0.01
  WSL2451                     1.82      1.82      1.83      0.01         0.01
  WSL2452                     1.76      1.76      1.82      0.01         0.01
  WSL2454                     1.74      1.74      1.76      0.01         0.01
  WSL2478                     1.73      1.73      1.74      0.01         0.01
  WSL2479                     0.37      0.37      1.73      0.01         0.01
  WSL2480                     0.06      0.06      0.37      0.01         0.01
  WSL2482                     0.01      0.01      0.06      0.01         0.01
  WSL2493                     2.13      2.13      2.16      0.01         0.01
  
  
  ***************
  Pumping Summary
  ***************
  
  ---------------------------------------------------------------------------------------------------------
                                                  Min       Avg       Max     Total     Power    % Time Off
                        Percent   Number of      Flow      Flow      Flow    Volume     Usage    Pump Curve
  Pump                 Utilized   Start-Ups       MLD       MLD       MLD  10^6 ltr     Kw-hr    Low   High
  ---------------------------------------------------------------------------------------------------------
  CC-Pump-1                0.00           0      0.00      0.00      0.00     0.000      0.00    0.0    0.0
  CC-Pump-2                0.00           0      0.00      0.00      0.00     0.000      0.00    0.0    0.0
  
  
  ***************************
  Link Pollutant Load Summary
  ***************************
  
  ------------------------------------------------------------------------------------------
                                 COD         NH3-N            TN            TP            SS
  Link                            kg            kg            kg            kg            kg
  ------------------------------------------------------------------------------------------
  WSL2038                     25.600         0.000         0.000         0.000         0.000
  WSL2039                     30.615         0.000         0.000         0.000         0.000
  WSL2041                     28.344         0.000         0.000         0.000         0.000
  WSL2294                     77.428         0.000         0.000         0.000         0.000
  WSL2295                     69.728         0.000         0.000         0.000         0.000
  WSL2296                     69.646         0.000         0.000         0.000         0.000
  WSL2297                     67.693         0.000         0.000         0.000         0.000
  WSL2298                     66.909         0.000         0.000         0.000         0.000
  WSL2301                     65.379         0.000         0.000         0.000         0.000
  WSL2302                     65.311         0.000         0.000         0.000         0.000
  WSL2441                     84.034         0.000         0.000         0.000         0.000
  WSL2442                     49.236         0.000         0.000         0.000         0.000
  WSL2443                     47.024         0.000         0.000         0.000         0.000
  WSL2444                     45.895         0.000         0.000         0.000         0.000
  WSL2446                     45.131         0.000         0.000         0.000         0.000
  WSL2447                     44.505         0.000         0.000         0.000         0.000
  WSL2448                     44.310         0.000         0.000         0.000         0.000
  WSL2449                     43.698         0.000         0.000         0.000         0.000
  WSL2450                     43.218         0.000         0.000         0.000         0.000
  WSL2451                     42.950         0.000         0.000         0.000         0.000
  WSL2452                     43.147         0.000         0.000         0.000         0.000
  WSL2454                     42.868         0.000         0.000         0.000         0.000
  WSL2478                     42.690         0.000         0.000         0.000         0.000
  WSL2479                     55.683         0.000         0.000         0.000         0.000
  WSL2480                     51.118         0.000         0.000         0.000         0.000
  WSL2482                     47.222         0.000         0.000         0.000         0.000
  WSL2484                     33.554         0.000         0.000         0.000         0.000
  WSL2493                     49.431         0.000         0.000         0.000         0.000
  8                           80.833         0.000         0.000         0.000         0.000
  19                           0.000         0.000         0.000         0.000         0.000
  17                          59.960         0.000         0.000         0.000         0.000
  CC-Pump-1                    0.000         0.000         0.000         0.000         0.000
  CC-Pump-2                    0.000         0.000         0.000         0.000         0.000
  

  Analysis begun on:  Mon Aug 19 11:18:49 2019
  Analysis ended on:  Mon Aug 19 11:18:49 2019
  Total elapsed time: < 1 sec