
  EPA STORM WATER MANAGEMENT MODEL - VERSION 5.1 (Build 5.2.0.dev5)
  --------------------------------------------------------------

  
  *********************************************************
  NOTE: The summary statistics displayed in this report are
  based on results found at every computational time step,  
  not just on results from each reporting time step.
  *********************************************************
  
  ****************
  Analysis Options
  ****************
  Flow Units ............... MLD
  Process Models:
    Rainfall/Runoff ........ YES
    RDII ................... NO
    Snowmelt ............... NO
    Groundwater ............ NO
    Flow Routing ........... YES
    Ponding Allowed ........ NO
    Water Quality .......... YES
  Infiltration Method ...... GREEN_AMPT
  Flow Routing Method ...... DYNWAVE
  Surcharge Method ......... EXTRAN
  Starting Date ............ 08/28/2015 08:00:00
  Ending Date .............. 08/28/2015 11:50:00
  Antecedent Dry Days ...... 4.0
  Report Time Step ......... 00:01:00
  Wet Time Step ............ 00:01:00
  Dry Time Step ............ 00:01:00
  Routing Time Step ........ 5.00 sec
  Variable Time Step ....... YES
  Maximum Trials ........... 8
  Number of Threads ........ 1
  Head Tolerance ........... 0.001500 m
  
  
  **************************        Volume         Depth
  Runoff Quantity Continuity     hectare-m            mm
  **************************     ---------       -------
  Total Precipitation ......         0.372         6.013
  Evaporation Loss .........         0.000         0.000
  Infiltration Loss ........         0.291         4.703
  Surface Runoff ...........         0.050         0.815
  Final Storage ............         0.031         0.495
  Continuity Error (%) .....        -0.011
  
  
  **************************           COD         NH3-N            TN            TP            SS
  Runoff Quality Continuity             kg            kg            kg            kg            kg
  **************************    ----------    ----------    ----------    ----------    ----------
  Initial Buildup ..........      2504.640         0.000         0.000         0.000         0.000
  Surface Buildup ..........        21.134         0.000         0.000         0.000         0.000
  Wet Deposition ...........         0.000         0.000         0.000         0.000         0.000
  Sweeping Removal .........         0.000         0.000         0.000         0.000         0.000
  Infiltration Loss ........        12.047         0.000         0.000         0.000         0.000
  BMP Removal ..............         0.000         0.000         0.000         0.000         0.000
  Surface Runoff ...........        33.611         0.000         0.000         0.000         0.000
  Remaining Buildup ........      2480.065         0.000         0.000         0.000         0.000
  Continuity Error (%) .....         0.002         0.000         0.000         0.000         0.000
  
  
  **************************        Volume        Volume
  Flow Routing Continuity        hectare-m      10^6 ltr
  **************************     ---------     ---------
  Dry Weather Inflow .......         0.000         0.000
  Wet Weather Inflow .......         0.050         0.503
  Groundwater Inflow .......         0.000         0.000
  RDII Inflow ..............         0.000         0.000
  External Inflow ..........         0.082         0.822
  External Outflow .........         0.033         0.332
  Flooding Loss ............         0.032         0.324
  Evaporation Loss .........         0.000         0.000
  Exfiltration Loss ........         0.000         0.000
  Initial Stored Volume ....         0.000         0.000
  Final Stored Volume ......         0.062         0.617
  Continuity Error (%) .....         3.974
  
  
  **************************           COD         NH3-N            TN            TP            SS
  Quality Routing Continuity            kg            kg            kg            kg            kg
  **************************    ----------    ----------    ----------    ----------    ----------
  Dry Weather Inflow .......         0.000         0.000         0.000         0.000         0.000
  Wet Weather Inflow .......        33.549         0.000         0.000         0.000         0.000
  Groundwater Inflow .......         0.000         0.000         0.000         0.000         0.000
  RDII Inflow ..............         0.000         0.000         0.000         0.000         0.000
  External Inflow ..........       137.269         0.000         0.000         0.000         0.000
  External Outflow .........        43.535         0.000         0.000         0.000         0.000
  Flooding Loss ............        38.285         0.000         0.000         0.000         0.000
  Exfiltration Loss ........         0.000         0.000         0.000         0.000         0.000
  Mass Reacted .............         0.000         0.000         0.000         0.000         0.000
  Initial Stored Mass ......         0.000         0.000         0.000         0.000         0.000
  Final Stored Mass ........        80.638         0.000         0.000         0.000         0.000
  Continuity Error (%) .....         4.894         0.000         0.000         0.000         0.000
  
  
  *************************
  Highest Continuity Errors
  *************************
  Node WS02006115 (18.40%)
  Node WS02006116 (17.49%)
  Node WS02004401 (16.16%)
  Node WS02006112 (14.51%)
  Node WS02006110 (11.78%)
  
  
  ***************************
  Time-Step Critical Elements
  ***************************
  Link 8 (69.24%)
  Link WSL2448 (24.25%)
  
  
  ********************************
  Highest Flow Instability Indexes
  ********************************
  Link WSL2302 (6)
  Link WSL2301 (6)
  Link WSL2297 (5)
  Link WSL2296 (4)
  Link WSL2298 (4)
  
  
  *************************
  Routing Time Step Summary
  *************************
  Minimum Time Step           :     0.62 sec
  Average Time Step           :     1.92 sec
  Maximum Time Step           :     5.00 sec
  Percent in Steady State     :     0.00
  Average Iterations per Step :     2.03
  Percent Not Converging      :     0.07
  
  
  ***************************
  Subcatchment Runoff Summary
  ***************************
  
  ------------------------------------------------------------------------------------------------------------------------------
                            Total      Total      Total      Total     Imperv       Perv      Total       Total     Peak  Runoff
                           Precip      Runon       Evap      Infil     Runoff     Runoff     Runoff      Runoff   Runoff   Coeff
  Subcatchment                 mm         mm         mm         mm         mm         mm         mm    10^6 ltr      MLD
  ------------------------------------------------------------------------------------------------------------------------------
  1                          6.01       3.50       0.00       5.43       2.20       0.32       2.52        0.03     0.58   0.265
  2                          6.01       0.00       0.00       4.49       1.34       0.02       1.36        0.05     0.84   0.225
  3                          6.01       0.00       0.00       4.49       1.30       0.02       1.31        0.07     1.23   0.218
  35                         6.01       0.00       0.00       4.49       1.35       0.02       1.37        0.04     0.76   0.227
  36                         6.01       2.40       0.00       5.24       1.80       0.10       1.89        0.11     2.08   0.225
  40                         6.01       0.69       0.00       4.86       1.48       0.04       1.51        0.06     1.10   0.226
  41                         6.01       0.00       0.00       4.49       1.38       0.02       1.40        0.03     0.50   0.233
  42                         6.01       0.00       0.00       4.49       1.37       0.02       1.39        0.03     0.59   0.231
  43                         6.01       0.00       0.00       4.46       1.45       0.05       1.51        0.01     0.11   0.251
  44                         6.01      31.57       0.00       8.45       9.04      10.76      19.80        0.07     1.37   0.527
  45                         6.01       0.00       0.00       4.48       1.41       0.03       1.45        0.01     0.28   0.241
  46                         6.01       1.95       0.00       5.15       1.82       0.12       1.94        0.04     0.78   0.243
  47                         6.01       0.00       0.00       4.48       1.41       0.03       1.44        0.02     0.30   0.240
  48                         6.01       1.01       0.00       4.94       1.63       0.07       1.70        0.03     0.50   0.242
  55                         6.01       1.48       0.00       5.05       1.77       0.14       1.91        0.02     0.30   0.256
  56                         6.01       2.13       0.00       5.18       1.85       0.13       1.99        0.04     0.80   0.244
  57                         6.01       0.00       0.00       4.49       1.30       0.02       1.32        0.07     1.21   0.219
  59                         6.01       0.00       0.00       4.47       1.42       0.04       1.46        0.01     0.23   0.243
  60                         6.01       3.31       0.00       5.43       2.23       0.44       2.67        0.01     0.27   0.287
  61                         6.01       0.00       0.00       4.50       1.14       0.01       1.15        0.21     3.80   0.191
  64                         6.01       0.00       0.00       4.48       1.41       0.03       1.44        0.02     0.32   0.239
  
  
  ****************************
  Subcatchment Washoff Summary
  ****************************
  
  ------------------------------------------------------------------------------------------
                                 COD         NH3-N            TN            TP            SS
  Subcatchment                    kg            kg            kg            kg            kg
  ------------------------------------------------------------------------------------------
  1                            0.894         0.000         0.000         0.000         0.000
  2                            0.000         0.000         0.000         0.000         0.000
  3                            0.000         0.000         0.000         0.000         0.000
  35                           1.856         0.000         0.000         0.000         0.000
  36                           8.790         0.000         0.000         0.000         0.000
  40                           3.237         0.000         0.000         0.000         0.000
  41                           1.254         0.000         0.000         0.000         0.000
  42                           1.447         0.000         0.000         0.000         0.000
  43                           0.272         0.000         0.000         0.000         0.000
  44                          20.773         0.000         0.000         0.000         0.000
  45                           0.711         0.000         0.000         0.000         0.000
  46                           3.166         0.000         0.000         0.000         0.000
  47                           0.760         0.000         0.000         0.000         0.000
  48                           1.670         0.000         0.000         0.000         0.000
  55                           1.130         0.000         0.000         0.000         0.000
  56                           3.391         0.000         0.000         0.000         0.000
  57                           2.854         0.000         0.000         0.000         0.000
  59                           0.591         0.000         0.000         0.000         0.000
  60                           1.385         0.000         0.000         0.000         0.000
  61                           7.961         0.000         0.000         0.000         0.000
  64                           0.816         0.000         0.000         0.000         0.000
  ------------------------------------------------------------------------------------------
  System                      62.958         0.000         0.000         0.000         0.000
  
  
  ******************
  Node Depth Summary
  ******************
  
  ---------------------------------------------------------------------------------
                                 Average  Maximum  Maximum  Time of Max    Reported
                                   Depth    Depth      HGL   Occurrence   Max Depth
  Node                 Type       Meters   Meters   Meters  days hr:min      Meters
  ---------------------------------------------------------------------------------
  WS01000070           JUNCTION     0.00     0.00     0.00     0  00:00        0.00
  WS01000323           JUNCTION     0.00     0.00     0.00     0  00:00        0.00
  WS01000533           JUNCTION     0.00     0.00     6.86     0  00:00        0.00
  WS01005172           JUNCTION     0.00     0.00     0.00     0  00:00        0.00
  WS01005181           JUNCTION     0.00     0.00     0.00     0  00:00        0.00
  WS01009841           JUNCTION     0.00     0.00     0.00     0  00:00        0.00
  WS02000078           JUNCTION     0.00     0.00     0.00     0  00:00        0.00
  WS02000112           JUNCTION     0.00     0.00     0.00     0  00:00        0.00
  WS02000136           JUNCTION     0.00     0.00     0.00     0  00:00        0.00
  WS02004053           JUNCTION     0.00     0.00     0.00     0  00:00        0.00
  WS02004401           JUNCTION     1.91     2.26     8.26     0  03:00        2.26
  WS02005192           JUNCTION     0.29     0.40     8.27     0  02:39        0.40
  WS02005193           JUNCTION     0.32     0.45     8.27     0  02:39        0.45
  WS02005196           JUNCTION     0.30     0.42     8.27     0  02:39        0.42
  WS02006109           JUNCTION     1.32     1.64     8.26     0  03:00        1.64
  WS02006110           JUNCTION     1.34     1.66     8.26     0  03:00        1.66
  WS02006111           JUNCTION     1.36     1.68     8.26     0  03:00        1.68
  WS02006112           JUNCTION     1.80     2.14     8.26     0  03:00        2.14
  WS02006113           JUNCTION     1.35     1.67     8.26     0  03:00        1.67
  WS02006115           JUNCTION     1.82     2.16     8.26     0  03:00        2.16
  WS02006116           JUNCTION     1.87     2.22     8.26     0  03:00        2.22
  WS02006183           JUNCTION     0.00     0.00     0.00     0  00:00        0.00
  WS02006228           JUNCTION     1.30     1.61     8.26     0  03:00        1.61
  WS02006229           JUNCTION     1.26     1.57     8.26     0  03:00        1.57
  WS02006230           JUNCTION     1.20     1.51     8.26     0  03:00        1.51
  WS02006231           JUNCTION     1.07     1.36     8.26     0  03:00        1.36
  WS02006232           JUNCTION     0.96     1.23     8.26     0  03:00        1.23
  WS02006234           JUNCTION     0.85     1.10     8.26     0  02:40        1.10
  WS02006235           JUNCTION     0.84     1.09     8.26     0  02:40        1.09
  WS02006238           JUNCTION     0.83     1.08     8.26     0  02:40        1.08
  WS02006239           JUNCTION     0.81     1.05     8.26     0  02:40        1.05
  WS02006242           JUNCTION     0.74     0.96     8.26     0  02:40        0.96
  WS02006240           JUNCTION     0.74     0.97     8.26     0  02:40        0.97
  WS02006243           JUNCTION     0.63     0.85     8.27     0  02:40        0.84
  WS02006245           JUNCTION     0.58     0.78     8.27     0  02:40        0.77
  WS02006247           JUNCTION     0.57     0.76     8.27     0  02:40        0.75
  WS02006248           JUNCTION     0.50     0.68     8.27     0  02:40        0.67
  WS02006249           JUNCTION     0.49     0.67     8.27     0  02:40        0.67
  WS02006251           JUNCTION     0.44     0.60     8.27     0  02:40        0.60
  WS02006253           JUNCTION     0.33     0.47     8.27     0  02:39        0.47
  WS02618401           JUNCTION     0.00     0.00     0.00     0  00:00        0.00
  WSA1649              JUNCTION     0.00     0.00     0.00     0  00:00        0.00
  outfall-5            OUTFALL      0.04     0.08     7.74     0  02:40        0.07
  outfall-14           OUTFALL      0.04     0.06     7.72     0  03:00        0.06
  outfall-16           OUTFALL      0.00     0.00     8.39     0  00:00        0.00
  CC-storage           STORAGE      5.06     5.63     8.81     0  01:48        5.63
  
  
  *******************
  Node Inflow Summary
  *******************
  
  -------------------------------------------------------------------------------------------------
                                  Maximum  Maximum                  Lateral       Total        Flow
                                  Lateral    Total  Time of Max      Inflow      Inflow     Balance
                                   Inflow   Inflow   Occurrence      Volume      Volume       Error
  Node                 Type           MLD      MLD  days hr:min    10^6 ltr    10^6 ltr     Percent
  -------------------------------------------------------------------------------------------------
  WS01000070           JUNCTION      0.00     0.00     0  00:00           0           0       0.000 ltr
  WS01000323           JUNCTION      0.00     0.00     0  00:00           0           0       0.000 ltr
  WS01000533           JUNCTION      0.00     0.00     0  00:00           0           0       0.000 ltr
  WS01005172           JUNCTION      0.00     0.00     0  00:00           0           0       0.000 ltr
  WS01005181           JUNCTION      0.00     0.00     0  00:00           0           0       0.000 ltr
  WS01009841           JUNCTION      0.00     0.00     0  00:00           0           0       0.000 ltr
  WS02000078           JUNCTION      0.00     0.00     0  00:00           0           0       0.000 ltr
  WS02000112           JUNCTION      0.00     0.00     0  00:00           0           0       0.000 ltr
  WS02000136           JUNCTION      0.00     0.00     0  00:00           0           0       0.000 ltr
  WS02004053           JUNCTION      0.00     0.00     0  00:00           0           0       0.000 ltr
  WS02004401           JUNCTION      0.05     3.71     0  03:00      0.0086       0.171      19.273
  WS02005192           JUNCTION      1.30     1.30     0  03:01      0.0826      0.0826       2.681
  WS02005193           JUNCTION      0.09     1.61     0  02:39       0.014       0.109       6.165
  WS02005196           JUNCTION      0.12     1.44     0  03:01      0.0183      0.0988       6.103
  WS02006109           JUNCTION      0.08     2.56     0  00:42      0.0129       0.226      12.407
  WS02006110           JUNCTION      0.08     2.64     0  00:42      0.0126       0.214      13.350
  WS02006111           JUNCTION      0.24     3.21     0  03:00      0.0352       0.234      10.125
  WS02006112           JUNCTION      0.18     3.37     0  03:00      0.0263       0.233      16.975
  WS02006113           JUNCTION      1.37     3.01     0  03:00      0.0923       0.253      10.657
  WS02006115           JUNCTION      0.08     3.45     0  03:00      0.0129       0.212      22.554
  WS02006116           JUNCTION      0.24     3.66     0  03:00      0.0347       0.209      21.193
  WS02006183           JUNCTION      0.00     0.00     0  00:00           0           0       0.000 ltr
  WS02006228           JUNCTION      1.52     2.48     0  00:43       0.101       0.262       7.786
  WS02006229           JUNCTION      0.13     2.37     0  02:17      0.0193       0.215       8.551
  WS02006230           JUNCTION      0.07     2.81     0  01:39      0.0111       0.223      12.513
  WS02006231           JUNCTION      0.13     2.98     0  01:39      0.0197       0.228       7.395
  WS02006232           JUNCTION      0.92     3.10     0  02:17      0.0587       0.268       6.268
  WS02006234           JUNCTION      0.14     3.19     0  02:17      0.0208       0.264       5.742
  WS02006235           JUNCTION      0.14     3.37     0  02:16      0.0215       0.257       3.610
  WS02006238           JUNCTION      0.15     3.43     0  02:16      0.0226       0.255       4.530
  WS02006239           JUNCTION      0.11     3.35     0  02:16      0.0167       0.251       6.658
  WS02006242           JUNCTION      0.08     3.44     0  02:37      0.0124       0.245       8.231
  WS02006240           JUNCTION      0.06     3.35     0  02:37     0.00952       0.245       7.288
  WS02006243           JUNCTION      0.17     3.60     0  02:37      0.0259       0.247       7.561
  WS02006245           JUNCTION      0.07     3.65     0  02:37      0.0109       0.232       6.067
  WS02006247           JUNCTION      0.71     4.23     0  02:37      0.0546       0.254       4.679
  WS02006248           JUNCTION      0.12     5.89     0  02:40      0.0185       0.308       3.412
  WS02006249           JUNCTION      0.19     2.83     0  02:37      0.0275       0.176       8.494
  WS02006251           JUNCTION      0.36     2.41     0  02:40      0.0253       0.151       9.705
  WS02006253           JUNCTION      0.11     1.93     0  02:41      0.0166       0.124       5.529
  WS02618401           JUNCTION      0.00     0.00     0  00:00           0           0       0.000 ltr
  WSA1649              JUNCTION      0.00     0.00     0  00:00           0           0       0.000 ltr
  outfall-5            OUTFALL       0.00     5.88     0  02:40           0       0.195       0.000
  outfall-14           OUTFALL       0.00     3.71     0  03:00           0       0.137       0.000
  outfall-16           OUTFALL       0.00     0.00     0  00:00           0           0       0.000 ltr
  CC-storage           STORAGE       5.36     5.36     0  03:00       0.483       0.483       0.003
  
  
  **********************
  Node Surcharge Summary
  **********************
  
  Surcharging occurs when water rises above the top of the highest conduit.
  ---------------------------------------------------------------------
                                               Max. Height   Min. Depth
                                   Hours       Above Crown    Below Rim
  Node                 Type      Surcharged         Meters       Meters
  ---------------------------------------------------------------------
  WS01000070           JUNCTION        3.83          0.000        0.000
  WS01000323           JUNCTION        3.83          0.000        0.000
  WS01000533           JUNCTION        3.83          0.000        2.147
  WS01005172           JUNCTION        3.83          0.000        0.000
  WS01005181           JUNCTION        3.83          0.000        0.000
  WS01009841           JUNCTION        3.83          0.000        0.000
  WS02000078           JUNCTION        3.83          0.000        0.000
  WS02000112           JUNCTION        3.83          0.000        0.000
  WS02000136           JUNCTION        3.83          0.000        0.000
  WS02004053           JUNCTION        3.83          0.000        0.000
  WS02006109           JUNCTION        1.99          0.843        0.995
  WS02006110           JUNCTION        2.01          0.863        0.982
  WS02006111           JUNCTION        2.03          0.882        0.995
  WS02006112           JUNCTION        2.37          1.142        0.541
  WS02006113           JUNCTION        2.02          0.873        1.060
  WS02006115           JUNCTION        2.40          1.161        1.138
  WS02006116           JUNCTION        2.50          1.220        1.130
  WS02006183           JUNCTION        3.83          0.000        0.000
  WS02006228           JUNCTION        1.96          0.812        1.419
  WS02006229           JUNCTION        1.91          0.772        1.682
  WS02006231           JUNCTION        1.80          0.661        0.882
  WS02006232           JUNCTION        1.67          0.531        0.958
  WS02006234           JUNCTION        1.53          0.401        0.856
  WS02006235           JUNCTION        1.52          0.392        0.902
  WS02006238           JUNCTION        1.51          0.382        1.052
  WS02006239           JUNCTION        1.48          0.353        0.976
  WS02006242           JUNCTION        1.39          0.264        0.585
  WS02006240           JUNCTION        1.40          0.273        1.130
  WS02006243           JUNCTION        1.28          0.146        0.634
  WS02006245           JUNCTION        1.23          0.077        0.778
  WS02006247           JUNCTION        1.22          0.057        0.703
  WS02618401           JUNCTION        3.83          0.000        0.000
  WSA1649              JUNCTION        3.83          0.000        0.000
  
  
  *********************
  Node Flooding Summary
  *********************
  
  Flooding refers to all water that overflows a node, whether it ponds or not.
  --------------------------------------------------------------------------
                                                             Total   Maximum
                                 Maximum   Time of Max       Flood    Ponded
                        Hours       Rate    Occurrence      Volume     Depth
  Node                 Flooded       MLD   days hr:min    10^6 ltr    Meters
  --------------------------------------------------------------------------
  CC-storage              2.02      5.36      0  03:00       0.324     0.000
  
  
  **********************
  Storage Volume Summary
  **********************
  
  --------------------------------------------------------------------------------------------------
                         Average     Avg  Evap Exfil       Maximum     Max    Time of Max    Maximum
                          Volume    Pcnt  Pcnt  Pcnt        Volume    Pcnt     Occurrence    Outflow
  Storage Unit           1000 m3    Full  Loss  Loss       1000 m3    Full    days hr:min        MLD
  --------------------------------------------------------------------------------------------------
  CC-storage               0.143      90     0     0         0.159     100       0  01:48       0.00
  
  
  ***********************
  Outfall Loading Summary
  ***********************
  
  ---------------------------------------------------------------------------------------------------------------------------------
                         Flow       Avg       Max       Total         Total         Total         Total         Total         Total
                         Freq      Flow      Flow      Volume           COD         NH3-N            TN            TP            SS
  Outfall Node           Pcnt       MLD       MLD    10^6 ltr            kg            kg            kg            kg            kg
  ---------------------------------------------------------------------------------------------------------------------------------
  outfall-5             69.69      3.89      5.88       0.195        22.272         0.000         0.000         0.000         0.000
  outfall-14            69.67      2.72      3.71       0.137        21.267         0.000         0.000         0.000         0.000
  outfall-16             0.00      0.00      0.00       0.000         0.000         0.000         0.000         0.000         0.000
  ---------------------------------------------------------------------------------------------------------------------------------
  System                46.45      6.62      8.67       0.332        43.539         0.000         0.000         0.000         0.000
  
  
  ********************
  Link Flow Summary
  ********************
  
  -----------------------------------------------------------------------------
                                 Maximum  Time of Max   Maximum    Max/    Max/
                                  |Flow|   Occurrence   |Veloc|    Full    Full
  Link                 Type          MLD  days hr:min     m/sec    Flow   Depth
  -----------------------------------------------------------------------------
  WSL2038              CONDUIT      1.33     0  03:01      0.39    0.07    0.69
  WSL2039              CONDUIT      1.82     0  02:41      0.60    0.09    0.77
  WSL2041              CONDUIT      1.53     0  02:39      0.43    0.07    0.73
  WSL2294              CONDUIT      2.56     0  00:42      0.43    0.09    1.00
  WSL2295              CONDUIT      2.66     0  00:41      0.50    0.12    1.00
  WSL2296              CONDUIT      3.22     0  03:00      0.63    0.02    1.00
  WSL2297              CONDUIT      3.37     0  03:00      0.34    0.06    1.00
  WSL2298              CONDUIT      3.02     0  03:00      0.87    0.14    1.00
  WSL2301              CONDUIT      3.45     0  03:00      0.29    0.03    1.00
  WSL2302              CONDUIT      3.66     0  03:00      0.23    0.04    1.00
  WSL2441              CONDUIT      2.48     0  00:42      0.44    0.06    1.00
  WSL2442              CONDUIT      2.36     0  02:17      0.63    0.06    1.00
  WSL2443              CONDUIT      2.74     0  01:39      0.73    0.04    1.00
  WSL2444              CONDUIT      2.85     0  01:39      0.86    0.05    1.00
  WSL2446              CONDUIT      3.07     0  02:17      0.82    0.05    1.00
  WSL2447              CONDUIT      3.24     0  02:16      0.64    0.17    1.00
  WSL2448              CONDUIT      3.30     0  02:16      0.51    0.09    1.00
  WSL2449              CONDUIT      3.25     0  02:16      0.49    0.11    1.00
  WSL2450              CONDUIT      3.29     0  02:37      0.57    0.07    1.00
  WSL2451              CONDUIT      3.36     0  02:37      0.53    0.22    1.00
  WSL2452              CONDUIT      3.44     0  02:37      0.54    0.07    1.00
  WSL2454              CONDUIT      3.58     0  02:37      0.67    0.08    1.00
  WSL2478              CONDUIT      3.68     0  02:37      0.57    0.13    1.00
  WSL2479              CONDUIT      4.37     0  02:37      0.52    0.08    0.98
  WSL2480              CONDUIT      2.74     0  02:40      0.53    0.13    0.96
  WSL2482              CONDUIT      2.50     0  02:40      0.46    0.06    0.90
  WSL2484              CONDUIT      2.12     0  02:40      0.57    0.03    0.76
  WSL2493              CONDUIT      2.29     0  00:43      0.51    0.04    1.00
  8                    CONDUIT      5.88     0  02:40      4.15    0.08    0.19
  19                   CONDUIT      0.00     0  00:00      0.00    0.00    0.00
  17                   CONDUIT      3.71     0  03:00      3.66    0.05    0.15
  CC-Pump-1            PUMP         0.00     0  00:00              0.00
  CC-Pump-2            PUMP         0.00     0  00:00              0.00
  
  
  ***************************
  Flow Classification Summary
  ***************************
  
  -------------------------------------------------------------------------------------
                      Adjusted    ---------- Fraction of Time in Flow Class ---------- 
                       /Actual         Up    Down  Sub   Sup   Up    Down  Norm  Inlet 
  Conduit               Length    Dry  Dry   Dry   Crit  Crit  Crit  Crit  Ltd   Ctrl  
  -------------------------------------------------------------------------------------
  WSL2038                 1.00   0.00  0.00  0.00  1.00  0.00  0.00  0.00  0.01  0.00
  WSL2039                 1.00   0.00  0.00  0.00  1.00  0.00  0.00  0.00  0.01  0.00
  WSL2041                 1.00   0.00  0.00  0.00  1.00  0.00  0.00  0.00  0.46  0.00
  WSL2294                 1.00   0.00  0.00  0.00  1.00  0.00  0.00  0.00  0.00  0.00
  WSL2295                 1.00   0.00  0.00  0.00  1.00  0.00  0.00  0.00  0.00  0.00
  WSL2296                 1.00   0.00  0.00  0.00  1.00  0.00  0.00  0.00  0.17  0.00
  WSL2297                 1.00   0.00  0.00  0.00  1.00  0.00  0.00  0.00  0.00  0.00
  WSL2298                 1.00   0.00  0.00  0.00  0.96  0.04  0.00  0.00  0.00  0.00
  WSL2301                 1.00   0.00  0.00  0.00  1.00  0.00  0.00  0.00  0.04  0.00
  WSL2302                 1.00   0.00  0.00  0.00  1.00  0.00  0.00  0.00  0.01  0.00
  WSL2441                 1.00   0.00  0.00  0.00  1.00  0.00  0.00  0.00  0.00  0.00
  WSL2442                 1.00   0.00  0.00  0.00  1.00  0.00  0.00  0.00  0.17  0.00
  WSL2443                 1.00   0.00  0.00  0.00  1.00  0.00  0.00  0.00  0.31  0.00
  WSL2444                 1.00   0.00  0.00  0.00  0.88  0.12  0.00  0.00  0.27  0.00
  WSL2446                 1.00   0.00  0.00  0.00  0.86  0.14  0.00  0.00  0.04  0.00
  WSL2447                 1.00   0.00  0.00  0.00  1.00  0.00  0.00  0.00  0.00  0.00
  WSL2448                 1.00   0.00  0.00  0.00  1.00  0.00  0.00  0.00  0.00  0.00
  WSL2449                 1.00   0.00  0.00  0.00  1.00  0.00  0.00  0.00  0.03  0.00
  WSL2450                 1.00   0.00  0.00  0.00  1.00  0.00  0.00  0.00  0.48  0.00
  WSL2451                 1.00   0.00  0.00  0.00  1.00  0.00  0.00  0.00  0.00  0.00
  WSL2452                 1.00   0.00  0.00  0.00  1.00  0.00  0.00  0.00  0.49  0.00
  WSL2454                 1.00   0.00  0.00  0.00  1.00  0.00  0.00  0.00  0.03  0.00
  WSL2478                 1.00   0.00  0.00  0.00  1.00  0.00  0.00  0.00  0.00  0.00
  WSL2479                 1.00   0.00  0.00  0.00  1.00  0.00  0.00  0.00  0.55  0.00
  WSL2480                 1.00   0.00  0.00  0.00  1.00  0.00  0.00  0.00  0.00  0.00
  WSL2482                 1.00   0.00  0.00  0.00  1.00  0.00  0.00  0.00  0.57  0.00
  WSL2484                 1.00   0.00  0.00  0.00  1.00  0.00  0.00  0.00  0.59  0.00
  WSL2493                 1.00   0.00  0.00  0.00  1.00  0.00  0.00  0.00  0.05  0.00
  8                       1.00   0.30  0.00  0.00  0.00  0.70  0.00  0.00  0.00  0.00
  19                      1.00   1.00  0.00  0.00  0.00  0.00  0.00  0.00  0.00  0.00
  17                      1.00   0.30  0.00  0.00  0.00  0.70  0.00  0.00  0.00  0.00
  
  
  *************************
  Conduit Surcharge Summary
  *************************
  
  ----------------------------------------------------------------------------
                                                           Hours        Hours 
                         --------- Hours Full --------   Above Full   Capacity
  Conduit                Both Ends  Upstream  Dnstream   Normal Flow   Limited
  ----------------------------------------------------------------------------
  WSL2294                     1.99      1.99      2.01      0.01         0.01
  WSL2295                     2.01      2.01      2.02      0.01         0.01
  WSL2296                     2.03      2.03      2.74      0.01         0.01
  WSL2297                     2.37      2.37      2.40      0.01         0.01
  WSL2298                     2.02      2.02      2.03      0.01         0.01
  WSL2301                     2.40      2.40      2.50      0.01         0.01
  WSL2302                     2.50      2.50      2.58      0.01         0.01
  WSL2441                     1.96      1.96      1.99      0.01         0.01
  WSL2442                     1.96      1.96      2.02      0.01         0.01
  WSL2443                     1.80      1.80      1.96      0.01         0.01
  WSL2444                     1.67      1.67      1.80      0.01         0.01
  WSL2446                     1.53      1.53      1.67      0.01         0.01
  WSL2447                     1.52      1.52      1.53      0.01         0.01
  WSL2448                     1.51      1.51      1.52      0.01         0.01
  WSL2449                     1.48      1.48      1.51      0.01         0.01
  WSL2450                     1.40      1.40      1.48      0.01         0.01
  WSL2451                     1.39      1.39      1.40      0.01         0.01
  WSL2452                     1.28      1.28      1.39      0.01         0.01
  WSL2454                     1.23      1.23      1.28      0.01         0.01
  WSL2478                     1.22      1.22      1.23      0.01         0.01
  WSL2479                     0.01      0.01      1.22      0.01         0.01
  WSL2493                     1.91      1.91      1.96      0.01         0.01
  
  
  ***************
  Pumping Summary
  ***************
  
  ---------------------------------------------------------------------------------------------------------
                                                  Min       Avg       Max     Total     Power    % Time Off
                        Percent   Number of      Flow      Flow      Flow    Volume     Usage    Pump Curve
  Pump                 Utilized   Start-Ups       MLD       MLD       MLD  10^6 ltr     Kw-hr    Low   High
  ---------------------------------------------------------------------------------------------------------
  CC-Pump-1                0.00           0      0.00      0.00      0.00     0.000      0.00    0.0    0.0
  CC-Pump-2                0.00           0      0.00      0.00      0.00     0.000      0.00    0.0    0.0
  
  
  ***************************
  Link Pollutant Load Summary
  ***************************
  
  ------------------------------------------------------------------------------------------
                                 COD         NH3-N            TN            TP            SS
  Link                            kg            kg            kg            kg            kg
  ------------------------------------------------------------------------------------------
  WSL2038                      5.588         0.000         0.000         0.000         0.000
  WSL2039                     10.346         0.000         0.000         0.000         0.000
  WSL2041                      8.249         0.000         0.000         0.000         0.000
  WSL2294                     33.571         0.000         0.000         0.000         0.000
  WSL2295                     27.518         0.000         0.000         0.000         0.000
  WSL2296                     28.744         0.000         0.000         0.000         0.000
  WSL2297                     28.279         0.000         0.000         0.000         0.000
  WSL2298                     25.870         0.000         0.000         0.000         0.000
  WSL2301                     27.024         0.000         0.000         0.000         0.000
  WSL2302                     26.715         0.000         0.000         0.000         0.000
  WSL2441                     38.709         0.000         0.000         0.000         0.000
  WSL2442                     34.383         0.000         0.000         0.000         0.000
  WSL2443                     33.951         0.000         0.000         0.000         0.000
  WSL2444                     33.826         0.000         0.000         0.000         0.000
  WSL2446                     33.941         0.000         0.000         0.000         0.000
  WSL2447                     33.622         0.000         0.000         0.000         0.000
  WSL2448                     33.086         0.000         0.000         0.000         0.000
  WSL2449                     32.738         0.000         0.000         0.000         0.000
  WSL2450                     32.425         0.000         0.000         0.000         0.000
  WSL2451                     31.927         0.000         0.000         0.000         0.000
  WSL2452                     31.475         0.000         0.000         0.000         0.000
  WSL2454                     29.931         0.000         0.000         0.000         0.000
  WSL2478                     28.929         0.000         0.000         0.000         0.000
  WSL2479                     28.088         0.000         0.000         0.000         0.000
  WSL2480                     20.077         0.000         0.000         0.000         0.000
  WSL2482                     15.824         0.000         0.000         0.000         0.000
  WSL2484                     13.104         0.000         0.000         0.000         0.000
  WSL2493                     33.919         0.000         0.000         0.000         0.000
  8                           22.272         0.000         0.000         0.000         0.000
  19                           0.000         0.000         0.000         0.000         0.000
  17                          21.267         0.000         0.000         0.000         0.000
  CC-Pump-1                    0.000         0.000         0.000         0.000         0.000
  CC-Pump-2                    0.000         0.000         0.000         0.000         0.000
  

  Analysis begun on:  Mon Aug 19 11:18:37 2019
  Analysis ended on:  Mon Aug 19 11:18:38 2019
  Total elapsed time: 00:00:01