
  EPA STORM WATER MANAGEMENT MODEL - VERSION 5.1 (Build 5.2.0.dev5)
  --------------------------------------------------------------

  
  *********************************************************
  NOTE: The summary statistics displayed in this report are
  based on results found at every computational time step,  
  not just on results from each reporting time step.
  *********************************************************
  
  ****************
  Analysis Options
  ****************
  Flow Units ............... MLD
  Process Models:
    Rainfall/Runoff ........ YES
    RDII ................... NO
    Snowmelt ............... NO
    Groundwater ............ NO
    Flow Routing ........... YES
    Ponding Allowed ........ NO
    Water Quality .......... YES
  Infiltration Method ...... GREEN_AMPT
  Flow Routing Method ...... DYNWAVE
  Surcharge Method ......... EXTRAN
  Starting Date ............ 08/28/2015 08:00:00
  Ending Date .............. 08/28/2015 11:50:00
  Antecedent Dry Days ...... 4.0
  Report Time Step ......... 00:01:00
  Wet Time Step ............ 00:01:00
  Dry Time Step ............ 00:01:00
  Routing Time Step ........ 5.00 sec
  Variable Time Step ....... YES
  Maximum Trials ........... 8
  Number of Threads ........ 1
  Head Tolerance ........... 0.001500 m
  
  
  **************************        Volume         Depth
  Runoff Quantity Continuity     hectare-m            mm
  **************************     ---------       -------
  Total Precipitation ......         0.854        13.808
  Evaporation Loss .........         0.000         0.000
  Infiltration Loss ........         0.433         7.001
  Surface Runoff ...........         0.163         2.631
  Final Storage ............         0.258         4.177
  Continuity Error (%) .....        -0.007
  
  
  **************************           COD         NH3-N            TN            TP            SS
  Runoff Quality Continuity             kg            kg            kg            kg            kg
  **************************    ----------    ----------    ----------    ----------    ----------
  Initial Buildup ..........      2504.640         0.000         0.000         0.000         0.000
  Surface Buildup ..........        19.790         0.000         0.000         0.000         0.000
  Wet Deposition ...........         0.000         0.000         0.000         0.000         0.000
  Sweeping Removal .........         0.000         0.000         0.000         0.000         0.000
  Infiltration Loss ........        53.014         0.000         0.000         0.000         0.000
  BMP Removal ..............         0.000         0.000         0.000         0.000         0.000
  Surface Runoff ...........       187.496         0.000         0.000         0.000         0.000
  Remaining Buildup ........      2283.195         0.000         0.000         0.000         0.000
  Continuity Error (%) .....         0.029         0.000         0.000         0.000         0.000
  
  
  **************************        Volume        Volume
  Flow Routing Continuity        hectare-m      10^6 ltr
  **************************     ---------     ---------
  Dry Weather Inflow .......         0.000         0.000
  Wet Weather Inflow .......         0.162         1.624
  Groundwater Inflow .......         0.000         0.000
  RDII Inflow ..............         0.000         0.000
  External Inflow ..........         0.082         0.822
  External Outflow .........         0.107         1.073
  Flooding Loss ............         0.071         0.713
  Evaporation Loss .........         0.000         0.000
  Exfiltration Loss ........         0.000         0.000
  Initial Stored Volume ....         0.000         0.000
  Final Stored Volume ......         0.062         0.619
  Continuity Error (%) .....         1.667
  
  
  **************************           COD         NH3-N            TN            TP            SS
  Quality Routing Continuity            kg            kg            kg            kg            kg
  **************************    ----------    ----------    ----------    ----------    ----------
  Dry Weather Inflow .......         0.000         0.000         0.000         0.000         0.000
  Wet Weather Inflow .......       187.066         0.000         0.000         0.000         0.000
  Groundwater Inflow .......         0.000         0.000         0.000         0.000         0.000
  RDII Inflow ..............         0.000         0.000         0.000         0.000         0.000
  External Inflow ..........       137.268         0.000         0.000         0.000         0.000
  External Outflow .........       134.957         0.000         0.000         0.000         0.000
  Flooding Loss ............        88.561         0.000         0.000         0.000         0.000
  Exfiltration Loss ........         0.000         0.000         0.000         0.000         0.000
  Mass Reacted .............         0.000         0.000         0.000         0.000         0.000
  Initial Stored Mass ......         0.000         0.000         0.000         0.000         0.000
  Final Stored Mass ........        93.463         0.000         0.000         0.000         0.000
  Continuity Error (%) .....         2.267         0.000         0.000         0.000         0.000
  
  
  *************************
  Highest Continuity Errors
  *************************
  Node WS02006230 (9.46%)
  Node WS02006115 (6.98%)
  Node WS02006116 (6.43%)
  Node WS02006229 (6.35%)
  Node WS02006110 (5.91%)
  
  
  ***************************
  Time-Step Critical Elements
  ***************************
  Link 8 (83.14%)
  Link WSL2448 (13.92%)
  
  
  ********************************
  Highest Flow Instability Indexes
  ********************************
  Link WSL2302 (4)
  Link WSL2301 (4)
  Link WSL2297 (3)
  Link WSL2296 (3)
  Link WSL2298 (2)
  
  
  *************************
  Routing Time Step Summary
  *************************
  Minimum Time Step           :     0.15 sec
  Average Time Step           :     1.30 sec
  Maximum Time Step           :     5.00 sec
  Percent in Steady State     :    -0.00
  Average Iterations per Step :     2.07
  Percent Not Converging      :     0.41
  
  
  ***************************
  Subcatchment Runoff Summary
  ***************************
  
  ------------------------------------------------------------------------------------------------------------------------------
                            Total      Total      Total      Total     Imperv       Perv      Total       Total     Peak  Runoff
                           Precip      Runon       Evap      Infil     Runoff     Runoff     Runoff      Runoff   Runoff   Coeff
  Subcatchment                 mm         mm         mm         mm         mm         mm         mm    10^6 ltr      MLD
  ------------------------------------------------------------------------------------------------------------------------------
  1                         13.81      12.73       0.00       8.11       6.26       4.32      10.58        0.13     2.41   0.399
  2                         13.81       0.00       0.00       6.71       3.24       0.78       4.02        0.14     2.57   0.291
  3                         13.81       0.00       0.00       6.73       3.19       0.65       3.84        0.20     3.68   0.278
  35                        13.81       0.00       0.00       6.70       3.26       0.81       4.07        0.12     2.35   0.295
  36                        13.81       7.72       0.00       7.82       4.88       1.61       6.49        0.38     7.09   0.302
  40                        13.81       2.12       0.00       7.04       3.70       1.02       4.73        0.18     3.49   0.297
  41                        13.81       0.00       0.00       6.67       3.30       0.98       4.28        0.08     1.60   0.310
  42                        13.81       0.00       0.00       6.68       3.28       0.92       4.20        0.10     1.84   0.304
  43                        13.81       0.00       0.00       6.51       3.40       1.84       5.24        0.02     0.39   0.379
  44                        13.81     108.17       0.00      12.69      29.68      57.06      86.74        0.32     5.92   0.711
  45                        13.81       0.00       0.00       6.62       3.35       1.26       4.61        0.05     0.94   0.334
  46                        13.81       6.46       0.00       7.57       4.77       2.18       6.95        0.15     2.82   0.343
  47                        13.81       0.00       0.00       6.63       3.34       1.23       4.57        0.05     1.00   0.331
  48                        13.81       3.20       0.00       7.13       4.06       1.72       5.78        0.09     1.76   0.340
  55                        13.81       4.77       0.00       7.25       4.48       2.63       7.11        0.06     1.16   0.383
  56                        13.81       7.12       0.00       7.64       4.92       2.31       7.23        0.15     2.93   0.345
  57                        13.81       0.00       0.00       6.73       3.19       0.65       3.85        0.19     3.62   0.279
  59                        13.81       0.00       0.00       6.60       3.36       1.36       4.72        0.04     0.79   0.342
  60                        13.81      10.42       0.00       7.81       5.87       5.10      10.97        0.06     1.12   0.453
  61                        13.81       0.00       0.00       6.77       2.95       0.36       3.31        0.60    11.06   0.240
  64                        13.81       0.00       0.00       6.63       3.34       1.19       4.53        0.05     1.06   0.328
  
  
  ****************************
  Subcatchment Washoff Summary
  ****************************
  
  ------------------------------------------------------------------------------------------
                                 COD         NH3-N            TN            TP            SS
  Subcatchment                    kg            kg            kg            kg            kg
  ------------------------------------------------------------------------------------------
  1                           13.331         0.000         0.000         0.000         0.000
  2                            0.000         0.000         0.000         0.000         0.000
  3                            0.000         0.000         0.000         0.000         0.000
  35                          14.444         0.000         0.000         0.000         0.000
  36                          85.313         0.000         0.000         0.000         0.000
  40                          27.207         0.000         0.000         0.000         0.000
  41                          10.131         0.000         0.000         0.000         0.000
  42                          11.516         0.000         0.000         0.000         0.000
  43                           2.740         0.000         0.000         0.000         0.000
  44                          80.579         0.000         0.000         0.000         0.000
  45                           6.159         0.000         0.000         0.000         0.000
  46                          33.183         0.000         0.000         0.000         0.000
  47                           6.529         0.000         0.000         0.000         0.000
  48                          16.115         0.000         0.000         0.000         0.000
  55                          12.465         0.000         0.000         0.000         0.000
  56                          36.646         0.000         0.000         0.000         0.000
  57                          21.566         0.000         0.000         0.000         0.000
  59                           5.255         0.000         0.000         0.000         0.000
  60                          15.941         0.000         0.000         0.000         0.000
  61                          59.556         0.000         0.000         0.000         0.000
  64                           6.940         0.000         0.000         0.000         0.000
  ------------------------------------------------------------------------------------------
  System                     465.615         0.000         0.000         0.000         0.000
  
  
  ******************
  Node Depth Summary
  ******************
  
  ---------------------------------------------------------------------------------
                                 Average  Maximum  Maximum  Time of Max    Reported
                                   Depth    Depth      HGL   Occurrence   Max Depth
  Node                 Type       Meters   Meters   Meters  days hr:min      Meters
  ---------------------------------------------------------------------------------
  WS01000070           JUNCTION     0.00     0.00     0.00     0  00:00        0.00
  WS01000323           JUNCTION     0.00     0.00     0.00     0  00:00        0.00
  WS01000533           JUNCTION     0.00     0.00     6.86     0  00:00        0.00
  WS01005172           JUNCTION     0.00     0.00     0.00     0  00:00        0.00
  WS01005181           JUNCTION     0.00     0.00     0.00     0  00:00        0.00
  WS01009841           JUNCTION     0.00     0.00     0.00     0  00:00        0.00
  WS02000078           JUNCTION     0.00     0.00     0.00     0  00:00        0.00
  WS02000112           JUNCTION     0.00     0.00     0.00     0  00:00        0.00
  WS02000136           JUNCTION     0.00     0.00     0.00     0  00:00        0.00
  WS02004053           JUNCTION     0.00     0.00     0.00     0  00:00        0.00
  WS02004401           JUNCTION     2.07     2.30     8.30     0  03:01        2.30
  WS02005192           JUNCTION     0.35     0.45     8.32     0  02:09        0.44
  WS02005193           JUNCTION     0.40     0.49     8.31     0  02:09        0.49
  WS02005196           JUNCTION     0.37     0.46     8.31     0  02:09        0.45
  WS02006109           JUNCTION     1.47     1.69     8.31     0  03:00        1.68
  WS02006110           JUNCTION     1.49     1.71     8.31     0  03:00        1.70
  WS02006111           JUNCTION     1.51     1.72     8.30     0  03:00        1.72
  WS02006112           JUNCTION     1.95     2.18     8.30     0  03:00        2.18
  WS02006113           JUNCTION     1.50     1.72     8.31     0  03:00        1.71
  WS02006115           JUNCTION     1.97     2.20     8.30     0  03:00        2.20
  WS02006116           JUNCTION     2.03     2.26     8.30     0  03:00        2.26
  WS02006183           JUNCTION     0.00     0.00     0.00     0  00:00        0.00
  WS02006228           JUNCTION     1.44     1.66     8.31     0  03:00        1.66
  WS02006229           JUNCTION     1.40     1.62     8.31     0  03:00        1.62
  WS02006230           JUNCTION     1.35     1.56     8.31     0  03:01        1.56
  WS02006231           JUNCTION     1.21     1.41     8.31     0  03:00        1.41
  WS02006232           JUNCTION     1.09     1.28     8.31     0  03:00        1.28
  WS02006234           JUNCTION     0.97     1.15     8.31     0  03:00        1.15
  WS02006235           JUNCTION     0.97     1.14     8.31     0  03:00        1.13
  WS02006238           JUNCTION     0.96     1.13     8.31     0  03:00        1.12
  WS02006239           JUNCTION     0.93     1.10     8.31     0  03:00        1.09
  WS02006242           JUNCTION     0.85     1.00     8.30     0  03:00        1.00
  WS02006240           JUNCTION     0.86     1.01     8.30     0  03:00        1.01
  WS02006243           JUNCTION     0.74     0.88     8.30     0  03:00        0.88
  WS02006245           JUNCTION     0.68     0.81     8.30     0  03:00        0.81
  WS02006247           JUNCTION     0.67     0.79     8.30     0  03:00        0.79
  WS02006248           JUNCTION     0.59     0.71     8.30     0  03:01        0.71
  WS02006249           JUNCTION     0.59     0.70     8.30     0  03:01        0.70
  WS02006251           JUNCTION     0.52     0.63     8.30     0  03:01        0.63
  WS02006253           JUNCTION     0.41     0.50     8.30     0  02:09        0.50
  WS02618401           JUNCTION     0.00     0.00     0.00     0  00:00        0.00
  WSA1649              JUNCTION     0.00     0.00     0.00     0  00:00        0.00
  outfall-5            OUTFALL      0.07     0.11     7.78     0  03:01        0.11
  outfall-14           OUTFALL      0.07     0.10     7.76     0  03:01        0.10
  outfall-16           OUTFALL      0.00     0.00     8.39     0  00:00        0.00
  CC-storage           STORAGE      5.26     5.63     8.81     0  01:38        5.63
  
  
  *******************
  Node Inflow Summary
  *******************
  
  -------------------------------------------------------------------------------------------------
                                  Maximum  Maximum                  Lateral       Total        Flow
                                  Lateral    Total  Time of Max      Inflow      Inflow     Balance
                                   Inflow   Inflow   Occurrence      Volume      Volume       Error
  Node                 Type           MLD      MLD  days hr:min    10^6 ltr    10^6 ltr     Percent
  -------------------------------------------------------------------------------------------------
  WS01000070           JUNCTION      0.00     0.00     0  00:00           0           0       0.000 ltr
  WS01000323           JUNCTION      0.00     0.00     0  00:00           0           0       0.000 ltr
  WS01000533           JUNCTION      0.00     0.00     0  00:00           0           0       0.000 ltr
  WS01005172           JUNCTION      0.00     0.00     0  00:00           0           0       0.000 ltr
  WS01005181           JUNCTION      0.00     0.00     0  00:00           0           0       0.000 ltr
  WS01009841           JUNCTION      0.00     0.00     0  00:00           0           0       0.000 ltr
  WS02000078           JUNCTION      0.00     0.00     0  00:00           0           0       0.000 ltr
  WS02000112           JUNCTION      0.00     0.00     0  00:00           0           0       0.000 ltr
  WS02000136           JUNCTION      0.00     0.00     0  00:00           0           0       0.000 ltr
  WS02004053           JUNCTION      0.00     0.00     0  00:00           0           0       0.000 ltr
  WS02004401           JUNCTION      0.05    10.06     0  03:00      0.0086       0.509       5.805
  WS02005192           JUNCTION      3.71     3.71     0  03:01       0.209       0.209       1.110
  WS02005193           JUNCTION      0.09     3.90     0  03:01       0.014       0.236       2.898
  WS02005196           JUNCTION      0.12     3.81     0  03:01      0.0183       0.225       2.742
  WS02006109           JUNCTION      0.08     5.58     0  03:01      0.0129       0.426       6.039
  WS02006110           JUNCTION      0.08     5.66     0  03:01      0.0126       0.416       6.279
  WS02006111           JUNCTION      0.24     9.59     0  03:01      0.0352       0.558       3.864
  WS02006112           JUNCTION      0.18     9.73     0  03:01      0.0263       0.561       6.223
  WS02006113           JUNCTION      3.82     9.39     0  03:01       0.221       0.579       4.274
  WS02006115           JUNCTION      0.08     9.81     0  03:00      0.0129       0.544       7.499
  WS02006116           JUNCTION      0.24    10.00     0  03:00      0.0347       0.544       6.871
  WS02006183           JUNCTION      0.00     0.00     0  00:00           0           0       0.000 ltr
  WS02006228           JUNCTION      6.07     6.07     0  03:02       0.347       0.504       3.733
  WS02006229           JUNCTION      0.13     4.25     0  01:55      0.0193       0.254       6.779
  WS02006230           JUNCTION      0.07     4.29     0  01:55      0.0111       0.265      10.446
  WS02006231           JUNCTION      0.13     4.09     0  01:56      0.0197       0.272       5.896
  WS02006232           JUNCTION      2.65     5.31     0  01:56       0.148       0.399       4.013
  WS02006234           JUNCTION      0.14     5.43     0  01:56      0.0208       0.391       3.687
  WS02006235           JUNCTION      0.14     5.26     0  01:56      0.0215       0.387       2.102
  WS02006238           JUNCTION      0.15     5.36     0  01:57      0.0226       0.388       2.691
  WS02006239           JUNCTION      0.11     5.59     0  01:56      0.0167       0.386       4.123
  WS02006242           JUNCTION      0.08     5.25     0  02:04      0.0124       0.386       4.995
  WS02006240           JUNCTION      0.06     5.67     0  01:58     0.00952       0.382       4.480
  WS02006243           JUNCTION      0.17     5.38     0  02:08      0.0259       0.392       4.592
  WS02006245           JUNCTION      0.07     5.42     0  02:08      0.0109       0.381       3.595
  WS02006247           JUNCTION      2.54     6.87     0  03:01       0.152       0.499       2.333
  WS02006248           JUNCTION      0.12    12.29     0  03:01      0.0185       0.716       1.465
  WS02006249           JUNCTION      0.19     5.36     0  03:01      0.0275       0.346       4.227
  WS02006251           JUNCTION      1.22     5.19     0  03:01      0.0683       0.321       4.469
  WS02006253           JUNCTION      0.11     4.01     0  02:10      0.0166       0.252       2.775
  WS02618401           JUNCTION      0.00     0.00     0  00:00           0           0       0.000 ltr
  WSA1649              JUNCTION      0.00     0.00     0  00:00           0           0       0.000 ltr
  outfall-5            OUTFALL       0.00    12.29     0  03:01           0       0.598       0.000
  outfall-14           OUTFALL       0.00    10.05     0  03:01           0       0.475       0.000
  outfall-16           OUTFALL       0.00     0.00     0  00:00           0           0       0.000 ltr
  CC-storage           STORAGE      12.52    12.52     0  03:00       0.872       0.872      -0.000
  
  
  **********************
  Node Surcharge Summary
  **********************
  
  Surcharging occurs when water rises above the top of the highest conduit.
  ---------------------------------------------------------------------
                                               Max. Height   Min. Depth
                                   Hours       Above Crown    Below Rim
  Node                 Type      Surcharged         Meters       Meters
  ---------------------------------------------------------------------
  WS01000070           JUNCTION        3.83          0.000        0.000
  WS01000323           JUNCTION        3.83          0.000        0.000
  WS01000533           JUNCTION        3.83          0.000        2.147
  WS01005172           JUNCTION        3.83          0.000        0.000
  WS01005181           JUNCTION        3.83          0.000        0.000
  WS01009841           JUNCTION        3.83          0.000        0.000
  WS02000078           JUNCTION        3.83          0.000        0.000
  WS02000112           JUNCTION        3.83          0.000        0.000
  WS02000136           JUNCTION        3.83          0.000        0.000
  WS02004053           JUNCTION        3.83          0.000        0.000
  WS02006109           JUNCTION        2.17          0.888        0.950
  WS02006110           JUNCTION        2.17          0.907        0.938
  WS02006111           JUNCTION        2.19          0.924        0.953
  WS02006112           JUNCTION        2.42          1.182        0.501
  WS02006113           JUNCTION        2.18          0.917        1.016
  WS02006115           JUNCTION        2.45          1.200        1.099
  WS02006116           JUNCTION        2.53          1.259        1.091
  WS02006183           JUNCTION        3.83          0.000        0.000
  WS02006228           JUNCTION        2.15          0.858        1.373
  WS02006229           JUNCTION        2.12          0.817        1.637
  WS02006231           JUNCTION        2.05          0.706        0.837
  WS02006232           JUNCTION        1.97          0.576        0.913
  WS02006234           JUNCTION        1.89          0.446        0.811
  WS02006235           JUNCTION        1.89          0.436        0.858
  WS02006238           JUNCTION        1.88          0.426        1.008
  WS02006239           JUNCTION        1.86          0.395        0.934
  WS02006242           JUNCTION        1.81          0.304        0.545
  WS02006240           JUNCTION        1.82          0.314        1.089
  WS02006243           JUNCTION        1.75          0.183        0.597
  WS02006245           JUNCTION        1.72          0.112        0.743
  WS02006247           JUNCTION        1.72          0.091        0.669
  WS02618401           JUNCTION        3.83          0.000        0.000
  WSA1649              JUNCTION        3.83          0.000        0.000
  
  
  *********************
  Node Flooding Summary
  *********************
  
  Flooding refers to all water that overflows a node, whether it ponds or not.
  --------------------------------------------------------------------------
                                                             Total   Maximum
                                 Maximum   Time of Max       Flood    Ponded
                        Hours       Rate    Occurrence      Volume     Depth
  Node                 Flooded       MLD   days hr:min    10^6 ltr    Meters
  --------------------------------------------------------------------------
  CC-storage              2.20     12.52      0  03:00       0.713     0.000
  
  
  **********************
  Storage Volume Summary
  **********************
  
  --------------------------------------------------------------------------------------------------
                         Average     Avg  Evap Exfil       Maximum     Max    Time of Max    Maximum
                          Volume    Pcnt  Pcnt  Pcnt        Volume    Pcnt     Occurrence    Outflow
  Storage Unit           1000 m3    Full  Loss  Loss       1000 m3    Full    days hr:min        MLD
  --------------------------------------------------------------------------------------------------
  CC-storage               0.149      93     0     0         0.159     100       0  01:38       0.00
  
  
  ***********************
  Outfall Loading Summary
  ***********************
  
  ---------------------------------------------------------------------------------------------------------------------------------
                         Flow       Avg       Max       Total         Total         Total         Total         Total         Total
                         Freq      Flow      Flow      Volume           COD         NH3-N            TN            TP            SS
  Outfall Node           Pcnt       MLD       MLD    10^6 ltr            kg            kg            kg            kg            kg
  ---------------------------------------------------------------------------------------------------------------------------------
  outfall-5             83.18      8.49     12.29       0.598        77.364         0.000         0.000         0.000         0.000
  outfall-14            83.13      6.76     10.05       0.475        57.601         0.000         0.000         0.000         0.000
  outfall-16             0.00      0.00      0.00       0.000         0.000         0.000         0.000         0.000         0.000
  ---------------------------------------------------------------------------------------------------------------------------------
  System                55.44     15.26     22.34       1.073       134.965         0.000         0.000         0.000         0.000
  
  
  ********************
  Link Flow Summary
  ********************
  
  -----------------------------------------------------------------------------
                                 Maximum  Time of Max   Maximum    Max/    Max/
                                  |Flow|   Occurrence   |Veloc|    Full    Full
  Link                 Type          MLD  days hr:min     m/sec    Flow   Depth
  -----------------------------------------------------------------------------
  WSL2038              CONDUIT      3.71     0  03:01      0.51    0.18    0.75
  WSL2039              CONDUIT      3.91     0  02:10      0.77    0.20    0.82
  WSL2041              CONDUIT      3.81     0  03:01      0.57    0.19    0.79
  WSL2294              CONDUIT      5.58     0  03:01      0.43    0.19    1.00
  WSL2295              CONDUIT      5.66     0  03:01      0.50    0.25    1.00
  WSL2296              CONDUIT      9.59     0  03:01      0.63    0.05    1.00
  WSL2297              CONDUIT      9.73     0  03:00      0.34    0.19    1.00
  WSL2298              CONDUIT      9.39     0  03:01      0.87    0.43    1.00
  WSL2301              CONDUIT      9.81     0  03:00      0.29    0.09    1.00
  WSL2302              CONDUIT     10.00     0  03:00      0.23    0.12    1.00
  WSL2441              CONDUIT      5.51     0  03:01      0.44    0.14    1.00
  WSL2442              CONDUIT      4.22     0  01:55      0.63    0.11    1.00
  WSL2443              CONDUIT      3.96     0  01:56      0.73    0.06    1.00
  WSL2444              CONDUIT      4.09     0  01:56      0.89    0.06    1.00
  WSL2446              CONDUIT      5.29     0  01:56      0.85    0.09    1.00
  WSL2447              CONDUIT      5.12     0  01:56      0.73    0.26    1.00
  WSL2448              CONDUIT      5.21     0  01:57      0.59    0.15    1.00
  WSL2449              CONDUIT      5.48     0  01:56      0.57    0.19    1.00
  WSL2450              CONDUIT      5.61     0  01:58      0.65    0.12    1.00
  WSL2451              CONDUIT      5.17     0  02:04      0.63    0.34    1.00
  WSL2452              CONDUIT      5.23     0  02:08      0.65    0.10    1.00
  WSL2454              CONDUIT      5.35     0  02:08      0.79    0.12    1.00
  WSL2478              CONDUIT      5.48     0  02:08      0.68    0.19    1.00
  WSL2479              CONDUIT      6.88     0  03:01      0.61    0.13    1.00
  WSL2480              CONDUIT      5.38     0  03:02      0.66    0.25    1.00
  WSL2482              CONDUIT      5.21     0  03:01      0.58    0.14    0.95
  WSL2484              CONDUIT      4.34     0  02:10      0.68    0.06    0.81
  WSL2493              CONDUIT      4.13     0  02:02      0.51    0.07    1.00
  8                    CONDUIT     12.29     0  03:01      5.13    0.16    0.27
  19                   CONDUIT      0.00     0  00:00      0.00    0.00    0.00
  17                   CONDUIT     10.05     0  03:01      4.90    0.13    0.24
  CC-Pump-1            PUMP         0.00     0  00:00              0.00
  CC-Pump-2            PUMP         0.00     0  00:00              0.00
  
  
  ***************************
  Flow Classification Summary
  ***************************
  
  -------------------------------------------------------------------------------------
                      Adjusted    ---------- Fraction of Time in Flow Class ---------- 
                       /Actual         Up    Down  Sub   Sup   Up    Down  Norm  Inlet 
  Conduit               Length    Dry  Dry   Dry   Crit  Crit  Crit  Crit  Ltd   Ctrl  
  -------------------------------------------------------------------------------------
  WSL2038                 1.00   0.00  0.00  0.00  1.00  0.00  0.00  0.00  0.01  0.00
  WSL2039                 1.00   0.00  0.00  0.00  1.00  0.00  0.00  0.00  0.00  0.00
  WSL2041                 1.00   0.00  0.00  0.00  1.00  0.00  0.00  0.00  0.32  0.00
  WSL2294                 1.00   0.00  0.00  0.00  1.00  0.00  0.00  0.00  0.00  0.00
  WSL2295                 1.00   0.00  0.00  0.00  1.00  0.00  0.00  0.00  0.00  0.00
  WSL2296                 1.00   0.00  0.00  0.00  1.00  0.00  0.00  0.00  0.17  0.00
  WSL2297                 1.00   0.00  0.00  0.00  1.00  0.00  0.00  0.00  0.00  0.00
  WSL2298                 1.00   0.00  0.00  0.00  0.98  0.02  0.00  0.00  0.00  0.00
  WSL2301                 1.00   0.00  0.00  0.00  1.00  0.00  0.00  0.00  0.04  0.00
  WSL2302                 1.00   0.00  0.00  0.00  1.00  0.00  0.00  0.00  0.01  0.00
  WSL2441                 1.00   0.00  0.00  0.00  1.00  0.00  0.00  0.00  0.00  0.00
  WSL2442                 1.00   0.00  0.00  0.00  1.00  0.00  0.00  0.00  0.17  0.00
  WSL2443                 1.00   0.00  0.00  0.00  1.00  0.00  0.00  0.00  0.31  0.00
  WSL2444                 1.00   0.00  0.00  0.00  0.92  0.08  0.00  0.00  0.24  0.00
  WSL2446                 1.00   0.00  0.00  0.00  0.91  0.09  0.00  0.00  0.03  0.00
  WSL2447                 1.00   0.00  0.00  0.00  1.00  0.00  0.00  0.00  0.00  0.00
  WSL2448                 1.00   0.00  0.00  0.00  1.00  0.00  0.00  0.00  0.00  0.00
  WSL2449                 1.00   0.00  0.00  0.00  1.00  0.00  0.00  0.00  0.03  0.00
  WSL2450                 1.00   0.00  0.00  0.00  1.00  0.00  0.00  0.00  0.44  0.00
  WSL2451                 1.00   0.00  0.00  0.00  1.00  0.00  0.00  0.00  0.00  0.00
  WSL2452                 1.00   0.00  0.00  0.00  1.00  0.00  0.00  0.00  0.44  0.00
  WSL2454                 1.00   0.00  0.00  0.00  1.00  0.00  0.00  0.00  0.02  0.00
  WSL2478                 1.00   0.00  0.00  0.00  1.00  0.00  0.00  0.00  0.00  0.00
  WSL2479                 1.00   0.00  0.00  0.00  1.00  0.00  0.00  0.00  0.48  0.00
  WSL2480                 1.00   0.00  0.00  0.00  1.00  0.00  0.00  0.00  0.00  0.00
  WSL2482                 1.00   0.00  0.00  0.00  1.00  0.00  0.00  0.00  0.49  0.00
  WSL2484                 1.00   0.00  0.00  0.00  1.00  0.00  0.00  0.00  0.50  0.00
  WSL2493                 1.00   0.00  0.00  0.00  1.00  0.00  0.00  0.00  0.05  0.00
  8                       1.00   0.17  0.00  0.00  0.00  0.83  0.00  0.00  0.01  0.00
  19                      1.00   1.00  0.00  0.00  0.00  0.00  0.00  0.00  0.00  0.00
  17                      1.00   0.17  0.00  0.00  0.00  0.83  0.00  0.00  0.00  0.00
  
  
  *************************
  Conduit Surcharge Summary
  *************************
  
  ----------------------------------------------------------------------------
                                                           Hours        Hours 
                         --------- Hours Full --------   Above Full   Capacity
  Conduit                Both Ends  Upstream  Dnstream   Normal Flow   Limited
  ----------------------------------------------------------------------------
  WSL2294                     2.17      2.17      2.17      0.01         0.01
  WSL2295                     2.17      2.17      2.18      0.01         0.01
  WSL2296                     2.19      2.19      2.74      0.01         0.01
  WSL2297                     2.42      2.42      2.45      0.01         0.01
  WSL2298                     2.18      2.18      2.19      0.01         0.01
  WSL2301                     2.45      2.45      2.53      0.01         0.01
  WSL2302                     2.53      2.53      2.60      0.01         0.01
  WSL2441                     2.15      2.15      2.17      0.01         0.01
  WSL2442                     2.15      2.15      2.18      0.01         0.01
  WSL2443                     2.05      2.05      2.15      0.01         0.01
  WSL2444                     1.97      1.97      2.05      0.01         0.01
  WSL2446                     1.89      1.89      1.97      0.01         0.01
  WSL2447                     1.89      1.89      1.89      0.01         0.01
  WSL2448                     1.88      1.88      1.89      0.01         0.01
  WSL2449                     1.86      1.86      1.88      0.01         0.01
  WSL2450                     1.82      1.82      1.86      0.01         0.01
  WSL2451                     1.81      1.81      1.82      0.01         0.01
  WSL2452                     1.75      1.75      1.81      0.01         0.01
  WSL2454                     1.72      1.72      1.75      0.01         0.01
  WSL2478                     1.72      1.72      1.72      0.01         0.01
  WSL2479                     0.31      0.31      1.72      0.01         0.01
  WSL2480                     0.01      0.01      0.31      0.01         0.01
  WSL2493                     2.12      2.12      2.15      0.01         0.01
  
  
  ***************
  Pumping Summary
  ***************
  
  ---------------------------------------------------------------------------------------------------------
                                                  Min       Avg       Max     Total     Power    % Time Off
                        Percent   Number of      Flow      Flow      Flow    Volume     Usage    Pump Curve
  Pump                 Utilized   Start-Ups       MLD       MLD       MLD  10^6 ltr     Kw-hr    Low   High
  ---------------------------------------------------------------------------------------------------------
  CC-Pump-1                0.00           0      0.00      0.00      0.00     0.000      0.00    0.0    0.0
  CC-Pump-2                0.00           0      0.00      0.00      0.00     0.000      0.00    0.0    0.0
  
  
  ***************************
  Link Pollutant Load Summary
  ***************************
  
  ------------------------------------------------------------------------------------------
                                 COD         NH3-N            TN            TP            SS
  Link                            kg            kg            kg            kg            kg
  ------------------------------------------------------------------------------------------
  WSL2038                     24.358         0.000         0.000         0.000         0.000
  WSL2039                     29.431         0.000         0.000         0.000         0.000
  WSL2041                     27.113         0.000         0.000         0.000         0.000
  WSL2294                     74.260         0.000         0.000         0.000         0.000
  WSL2295                     66.690         0.000         0.000         0.000         0.000
  WSL2296                     66.723         0.000         0.000         0.000         0.000
  WSL2297                     64.986         0.000         0.000         0.000         0.000
  WSL2298                     63.922         0.000         0.000         0.000         0.000
  WSL2301                     62.874         0.000         0.000         0.000         0.000
  WSL2302                     62.966         0.000         0.000         0.000         0.000
  WSL2441                     80.707         0.000         0.000         0.000         0.000
  WSL2442                     48.553         0.000         0.000         0.000         0.000
  WSL2443                     46.423         0.000         0.000         0.000         0.000
  WSL2444                     45.306         0.000         0.000         0.000         0.000
  WSL2446                     44.545         0.000         0.000         0.000         0.000
  WSL2447                     43.926         0.000         0.000         0.000         0.000
  WSL2448                     43.714         0.000         0.000         0.000         0.000
  WSL2449                     43.126         0.000         0.000         0.000         0.000
  WSL2450                     42.620         0.000         0.000         0.000         0.000
  WSL2451                     42.405         0.000         0.000         0.000         0.000
  WSL2452                     42.581         0.000         0.000         0.000         0.000
  WSL2454                     42.304         0.000         0.000         0.000         0.000
  WSL2478                     42.099         0.000         0.000         0.000         0.000
  WSL2479                     54.106         0.000         0.000         0.000         0.000
  WSL2480                     49.135         0.000         0.000         0.000         0.000
  WSL2482                     45.219         0.000         0.000         0.000         0.000
  WSL2484                     32.360         0.000         0.000         0.000         0.000
  WSL2493                     48.674         0.000         0.000         0.000         0.000
  8                           77.364         0.000         0.000         0.000         0.000
  19                           0.000         0.000         0.000         0.000         0.000
  17                          57.601         0.000         0.000         0.000         0.000
  CC-Pump-1                    0.000         0.000         0.000         0.000         0.000
  CC-Pump-2                    0.000         0.000         0.000         0.000         0.000
  

  Analysis begun on:  Mon Aug 19 11:19:01 2019
  Analysis ended on:  Mon Aug 19 11:19:01 2019
  Total elapsed time: < 1 sec