
  EPA STORM WATER MANAGEMENT MODEL - VERSION 5.1 (Build 5.1.013)
  --------------------------------------------------------------

  
  *********************************************************
  NOTE: The summary statistics displayed in this report are
  based on results found at every computational time step,  
  not just on results from each reporting time step.
  *********************************************************
  
  ****************
  Analysis Options
  ****************
  Flow Units ............... MLD
  Process Models:
    Rainfall/Runoff ........ YES
    RDII ................... NO
    Snowmelt ............... NO
    Groundwater ............ NO
    Flow Routing ........... YES
    Ponding Allowed ........ NO
    Water Quality .......... YES
  Infiltration Method ...... GREEN_AMPT
  Flow Routing Method ...... DYNWAVE
  Surcharge Method ......... EXTRAN
  Starting Date ............ 08/28/2015 08:00:00
  Ending Date .............. 08/29/2015 12:00:00
  Antecedent Dry Days ...... 4.0
  Report Time Step ......... 00:01:00
  Wet Time Step ............ 00:01:00
  Dry Time Step ............ 00:01:00
  Routing Time Step ........ 5.00 sec
  Variable Time Step ....... YES
  Maximum Trials ........... 8
  Number of Threads ........ 1
  Head Tolerance ........... 0.001500 m
  
  
  **************************        Volume         Depth
  Runoff Quantity Continuity     hectare-m            mm
  **************************     ---------       -------
  Total Precipitation ......         0.605        33.588
  Evaporation Loss .........         0.000         0.000
  Infiltration Loss ........         0.347        19.291
  Surface Runoff ...........         0.257        14.285
  Final Storage ............         0.000         0.012
  Continuity Error (%) .....        -0.001
  
  
  **************************           COD         NH3-N            TN            TP            SS
  Runoff Quality Continuity             kg            kg            kg            kg            kg
  **************************    ----------    ----------    ----------    ----------    ----------
  Initial Buildup ..........       864.000         0.000         0.000         0.000         0.000
  Surface Buildup ..........       154.981         0.000         0.000         0.000         0.000
  Wet Deposition ...........         0.000         0.000         0.000         0.000         0.000
  Sweeping Removal .........         0.000         0.000         0.000         0.000         0.000
  Infiltration Loss ........         0.000         0.000         0.000         0.000         0.000
  BMP Removal ..............         0.000         0.000         0.000         0.000         0.000
  Surface Runoff ...........       438.389         0.000         0.000         0.000         0.000
  Remaining Buildup ........       580.592         0.000         0.000         0.000         0.000
  Continuity Error (%) .....         0.000         0.000         0.000         0.000         0.000
  
  
  **************************        Volume        Volume
  Flow Routing Continuity        hectare-m      10^6 ltr
  **************************     ---------     ---------
  Dry Weather Inflow .......         0.000         0.000
  Wet Weather Inflow .......         0.257         2.571
  Groundwater Inflow .......         0.000         0.000
  RDII Inflow ..............         0.000         0.000
  External Inflow ..........         0.205         2.049
  External Outflow .........         0.452         4.521
  Flooding Loss ............         0.000         0.004
  Evaporation Loss .........         0.000         0.000
  Exfiltration Loss ........         0.000         0.000
  Initial Stored Volume ....         0.000         0.000
  Final Stored Volume ......         0.012         0.119
  Continuity Error (%) .....        -0.527
  
  
  **************************           COD         NH3-N            TN            TP            SS
  Quality Routing Continuity            kg            kg            kg            kg            kg
  **************************    ----------    ----------    ----------    ----------    ----------
  Dry Weather Inflow .......         0.000         0.000         0.000         0.000         0.000
  Wet Weather Inflow .......       438.364         0.000         0.000         0.000         0.000
  Groundwater Inflow .......         0.000         0.000         0.000         0.000         0.000
  RDII Inflow ..............         0.000         0.000         0.000         0.000         0.000
  External Inflow ..........       342.208         0.000         0.000         0.000         0.000
  External Outflow .........       775.270         0.000         0.000         0.000         0.000
  Flooding Loss ............         0.648         0.000         0.000         0.000         0.000
  Exfiltration Loss ........         0.000         0.000         0.000         0.000         0.000
  Mass Reacted .............         0.000         0.000         0.000         0.000         0.000
  Initial Stored Mass ......         0.000         0.000         0.000         0.000         0.000
  Final Stored Mass ........        19.901         0.000         0.000         0.000         0.000
  Continuity Error (%) .....        -1.953         0.000         0.000         0.000         0.000
  
  
  ***************************
  Time-Step Critical Elements
  ***************************
  Link 8 (97.20%)
  
  
  ********************************
  Highest Flow Instability Indexes
  ********************************
  Link WSL2484 (6)
  Link WSL2482 (4)
  Link WSL2480 (4)
  Link 8 (2)
  
  
  *************************
  Routing Time Step Summary
  *************************
  Minimum Time Step           :     0.45 sec
  Average Time Step           :     1.33 sec
  Maximum Time Step           :     5.00 sec
  Percent in Steady State     :     0.00
  Average Iterations per Step :     2.04
  Percent Not Converging      :     0.52
  
  
  ***************************
  Subcatchment Runoff Summary
  ***************************
  
  ------------------------------------------------------------------------------------------------------------------------------
                            Total      Total      Total      Total     Imperv       Perv      Total       Total     Peak  Runoff
                           Precip      Runon       Evap      Infil     Runoff     Runoff     Runoff      Runoff   Runoff   Coeff
  Subcatchment                 mm         mm         mm         mm         mm         mm         mm    10^6 ltr      MLD
  ------------------------------------------------------------------------------------------------------------------------------
  61                        33.59       0.00       0.00      19.29       8.39       5.90      14.29        2.57    31.31   0.425
  
  
  ****************************
  Subcatchment Washoff Summary
  ****************************
  
  ------------------------------------------------------------------------------------------
                                 COD         NH3-N            TN            TP            SS
  Subcatchment                    kg            kg            kg            kg            kg
  ------------------------------------------------------------------------------------------
  61                         438.389         0.000         0.000         0.000         0.000
  ------------------------------------------------------------------------------------------
  System                     438.389         0.000         0.000         0.000         0.000
  
  
  ******************
  Node Depth Summary
  ******************
  
  ---------------------------------------------------------------------------------
                                 Average  Maximum  Maximum  Time of Max    Reported
                                   Depth    Depth      HGL   Occurrence   Max Depth
  Node                 Type       Meters   Meters   Meters  days hr:min      Meters
  ---------------------------------------------------------------------------------
  WS02006248           JUNCTION     0.66     0.77     8.36     1  00:14        0.76
  WS02006249           JUNCTION     0.66     1.09     8.69     0  01:05        0.87
  WS02006251           JUNCTION     0.59     1.75     9.42     0  04:29        0.83
  WS02006253           JUNCTION     0.46     1.19     8.99     0  05:42        0.91
  outfall-5            OUTFALL      0.07     0.15     7.82     0  14:53        0.15
  outfall-27           OUTFALL      0.01     0.16     8.06     0  03:01        0.16
  CC-storage           STORAGE      2.40     5.29     8.47     0  03:01        5.29
  
  
  *******************
  Node Inflow Summary
  *******************
  
  -------------------------------------------------------------------------------------------------
                                  Maximum  Maximum                  Lateral       Total        Flow
                                  Lateral    Total  Time of Max      Inflow      Inflow     Balance
                                   Inflow   Inflow   Occurrence      Volume      Volume       Error
  Node                 Type           MLD      MLD  days hr:min    10^6 ltr    10^6 ltr     Percent
  -------------------------------------------------------------------------------------------------
  WS02006248           JUNCTION      0.12    23.03     0  14:53       0.118        4.17       0.070
  WS02006249           JUNCTION      0.19    22.50     0  14:53        0.17        4.21      -0.047
  WS02006251           JUNCTION      0.06    27.04     0  04:29      0.0663         4.4       0.118
  WS02006253           JUNCTION      0.11    18.97     0  04:28       0.107        4.18       0.163
  outfall-5            OUTFALL       0.00    23.19     0  14:53           0        4.12       0.000
  outfall-27           OUTFALL       0.00    15.44     0  03:01           0       0.404       0.000
  CC-storage           STORAGE      32.77    32.77     0  03:01        4.16        4.16       0.001
  
  
  **********************
  Node Surcharge Summary
  **********************
  
  Surcharging occurs when water rises above the top of the highest conduit.
  ---------------------------------------------------------------------
                                               Max. Height   Min. Depth
                                   Hours       Above Crown    Below Rim
  Node                 Type      Surcharged         Meters       Meters
  ---------------------------------------------------------------------
  WS02006249           JUNCTION        5.01          0.388        0.000
  WS02006251           JUNCTION        0.24          1.051        0.459
  WS02006253           JUNCTION        0.02          0.495        1.959
  
  
  *********************
  Node Flooding Summary
  *********************
  
  Flooding refers to all water that overflows a node, whether it ponds or not.
  --------------------------------------------------------------------------
                                                             Total   Maximum
                                 Maximum   Time of Max       Flood    Ponded
                        Hours       Rate    Occurrence      Volume     Depth
  Node                 Flooded       MLD   days hr:min    10^6 ltr    Meters
  --------------------------------------------------------------------------
  WS02006249              0.01     11.38      0  04:29       0.005     0.000
  
  
  **********************
  Storage Volume Summary
  **********************
  
  --------------------------------------------------------------------------------------------------
                         Average     Avg  Evap Exfil       Maximum     Max    Time of Max    Maximum
                          Volume    Pcnt  Pcnt  Pcnt        Volume    Pcnt     Occurrence    Outflow
  Storage Unit           1000 m3    Full  Loss  Loss       1000 m3    Full    days hr:min        MLD
  --------------------------------------------------------------------------------------------------
  CC-storage               0.068      43     0     0         0.149      94       0  03:01      32.72
  
  
  ***********************
  Outfall Loading Summary
  ***********************
  
  ---------------------------------------------------------------------------------------------------------------------------------
                         Flow       Avg       Max       Total         Total         Total         Total         Total         Total
                         Freq      Flow      Flow      Volume           COD         NH3-N            TN            TP            SS
  Outfall Node           Pcnt       MLD       MLD    10^6 ltr            kg            kg            kg            kg            kg
  ---------------------------------------------------------------------------------------------------------------------------------
  outfall-5             97.44      8.12     23.19       4.118       672.825         0.000         0.000         0.000         0.000
  outfall-27             9.32      8.78     15.44       0.404       102.572         0.000         0.000         0.000         0.000
  ---------------------------------------------------------------------------------------------------------------------------------
  System                53.38     16.90     15.44       4.521       775.397         0.000         0.000         0.000         0.000
  
  
  ********************
  Link Flow Summary
  ********************
  
  -----------------------------------------------------------------------------
                                 Maximum  Time of Max   Maximum    Max/    Max/
                                  |Flow|   Occurrence   |Veloc|    Full    Full
  Link                 Type          MLD  days hr:min     m/sec    Flow   Depth
  -----------------------------------------------------------------------------
  WSL2480              CONDUIT     22.92     0  14:53      0.69    1.06    1.00
  WSL2482              CONDUIT     22.34     0  14:53      0.73    0.58    1.00
  WSL2484              CONDUIT     26.99     0  04:29      1.12    0.38    1.00
  8                    CONDUIT     23.19     0  14:53      6.14    0.31    0.38
  1                    CONDUIT     15.44     0  03:01      3.90    0.33    0.39
  CC-Pump-1            PUMP        17.28     0  01:04              1.00
  
  
  ***************************
  Flow Classification Summary
  ***************************
  
  -------------------------------------------------------------------------------------
                      Adjusted    ---------- Fraction of Time in Flow Class ---------- 
                       /Actual         Up    Down  Sub   Sup   Up    Down  Norm  Inlet 
  Conduit               Length    Dry  Dry   Dry   Crit  Crit  Crit  Crit  Ltd   Ctrl  
  -------------------------------------------------------------------------------------
  WSL2480                 1.00   0.00  0.00  0.00  1.00  0.00  0.00  0.00  0.00  0.00
  WSL2482                 1.00   0.00  0.00  0.00  1.00  0.00  0.00  0.00  0.00  0.00
  WSL2484                 1.00   0.00  0.00  0.00  1.00  0.00  0.00  0.00  0.01  0.00
  8                       1.00   0.02  0.00  0.00  0.00  0.97  0.00  0.00  0.35  0.00
  1                       1.00   0.91  0.00  0.00  0.00  0.09  0.00  0.00  0.01  0.00
  
  
  *************************
  Conduit Surcharge Summary
  *************************
  
  ----------------------------------------------------------------------------
                                                           Hours        Hours 
                         --------- Hours Full --------   Above Full   Capacity
  Conduit                Both Ends  Upstream  Dnstream   Normal Flow   Limited
  ----------------------------------------------------------------------------
  WSL2480                     4.98      5.01      5.11      0.12         0.27
  WSL2482                     0.20      0.22      5.01      0.01         0.05
  WSL2484                     0.01      0.02      0.22      0.01         0.01
  
  
  ***************
  Pumping Summary
  ***************
  
  ---------------------------------------------------------------------------------------------------------
                                                  Min       Avg       Max     Total     Power    % Time Off
                        Percent   Number of      Flow      Flow      Flow    Volume     Usage    Pump Curve
  Pump                 Utilized   Start-Ups       MLD       MLD       MLD  10^6 ltr     Kw-hr    Low   High
  ---------------------------------------------------------------------------------------------------------
  CC-Pump-1               18.24          29      0.00     17.28     17.28     3.677     22.10    0.0    0.0
  
  
  ***************************
  Link Pollutant Load Summary
  ***************************
  
  ------------------------------------------------------------------------------------------
                                 COD         NH3-N            TN            TP            SS
  Link                            kg            kg            kg            kg            kg
  ------------------------------------------------------------------------------------------
  WSL2480                    666.587         0.000         0.000         0.000         0.000
  WSL2482                    671.338         0.000         0.000         0.000         0.000
  WSL2484                    733.470         0.000         0.000         0.000         0.000
  8                          672.825         0.000         0.000         0.000         0.000
  1                          102.572         0.000         0.000         0.000         0.000
  CC-Pump-1                  587.784         0.000         0.000         0.000         0.000
  

  Analysis begun on:  Wed Feb 13 14:53:06 2019
  Analysis ended on:  Wed Feb 13 14:53:06 2019
  Total elapsed time: < 1 sec