
  EPA STORM WATER MANAGEMENT MODEL - VERSION 5.1 (Build 5.2.0.dev5)
  --------------------------------------------------------------

  
  *********************************************************
  NOTE: The summary statistics displayed in this report are
  based on results found at every computational time step,  
  not just on results from each reporting time step.
  *********************************************************
  
  ****************
  Analysis Options
  ****************
  Flow Units ............... MLD
  Process Models:
    Rainfall/Runoff ........ YES
    RDII ................... NO
    Snowmelt ............... NO
    Groundwater ............ NO
    Flow Routing ........... YES
    Ponding Allowed ........ NO
    Water Quality .......... YES
  Infiltration Method ...... GREEN_AMPT
  Flow Routing Method ...... DYNWAVE
  Surcharge Method ......... EXTRAN
  Starting Date ............ 08/28/2015 08:00:00
  Ending Date .............. 08/28/2015 11:50:00
  Antecedent Dry Days ...... 4.0
  Report Time Step ......... 00:01:00
  Wet Time Step ............ 00:01:00
  Dry Time Step ............ 00:01:00
  Routing Time Step ........ 5.00 sec
  Variable Time Step ....... YES
  Maximum Trials ........... 8
  Number of Threads ........ 1
  Head Tolerance ........... 0.001500 m
  
  
  **************************        Volume         Depth
  Runoff Quantity Continuity     hectare-m            mm
  **************************     ---------       -------
  Total Precipitation ......         1.371        22.163
  Evaporation Loss .........         0.000         0.000
  Infiltration Loss ........         0.519         8.384
  Surface Runoff ...........         0.318         5.138
  Final Storage ............         0.535         8.643
  Continuity Error (%) .....        -0.006
  
  
  **************************           COD         NH3-N            TN            TP            SS
  Runoff Quality Continuity             kg            kg            kg            kg            kg
  **************************    ----------    ----------    ----------    ----------    ----------
  Initial Buildup ..........      2504.640         0.000         0.000         0.000         0.000
  Surface Buildup ..........        19.682         0.000         0.000         0.000         0.000
  Wet Deposition ...........         0.000         0.000         0.000         0.000         0.000
  Sweeping Removal .........         0.000         0.000         0.000         0.000         0.000
  Infiltration Loss ........       110.782         0.000         0.000         0.000         0.000
  BMP Removal ..............         0.000         0.000         0.000         0.000         0.000
  Surface Runoff ...........       593.007         0.000         0.000         0.000         0.000
  Remaining Buildup ........      1818.164         0.000         0.000         0.000         0.000
  Continuity Error (%) .....         0.094         0.000         0.000         0.000         0.000
  
  
  **************************        Volume        Volume
  Flow Routing Continuity        hectare-m      10^6 ltr
  **************************     ---------     ---------
  Dry Weather Inflow .......         0.000         0.000
  Wet Weather Inflow .......         0.317         3.170
  Groundwater Inflow .......         0.000         0.000
  RDII Inflow ..............         0.000         0.000
  External Inflow ..........         0.082         0.822
  External Outflow .........         0.335         3.354
  Flooding Loss ............         0.016         0.163
  Evaporation Loss .........         0.000         0.000
  Exfiltration Loss ........         0.000         0.000
  Initial Stored Volume ....         0.000         0.000
  Final Stored Volume ......         0.059         0.595
  Continuity Error (%) .....        -2.992
  
  
  **************************           COD         NH3-N            TN            TP            SS
  Quality Routing Continuity            kg            kg            kg            kg            kg
  **************************    ----------    ----------    ----------    ----------    ----------
  Dry Weather Inflow .......         0.000         0.000         0.000         0.000         0.000
  Wet Weather Inflow .......       591.574         0.000         0.000         0.000         0.000
  Groundwater Inflow .......         0.000         0.000         0.000         0.000         0.000
  RDII Inflow ..............         0.000         0.000         0.000         0.000         0.000
  External Inflow ..........       137.263         0.000         0.000         0.000         0.000
  External Outflow .........       573.937         0.000         0.000         0.000         0.000
  Flooding Loss ............        30.842         0.000         0.000         0.000         0.000
  Exfiltration Loss ........         0.000         0.000         0.000         0.000         0.000
  Mass Reacted .............         0.000         0.000         0.000         0.000         0.000
  Initial Stored Mass ......         0.000         0.000         0.000         0.000         0.000
  Final Stored Mass ........        92.503         0.000         0.000         0.000         0.000
  Continuity Error (%) .....         4.330         0.000         0.000         0.000         0.000
  
  
  *************************
  Highest Continuity Errors
  *************************
  Node WS02006230 (5.36%)
  Node WS02006242 (3.75%)
  Node WS02006243 (3.43%)
  Node WS02006240 (3.33%)
  Node WS02006229 (3.32%)
  
  
  ***************************
  Time-Step Critical Elements
  ***************************
  Link 8 (81.85%)
  Link WSL2448 (7.98%)
  Link 17 (7.97%)
  
  
  ********************************
  Highest Flow Instability Indexes
  ********************************
  Link WSL2302 (3)
  Link WSL2301 (2)
  Link WSL2297 (2)
  Link WSL2493 (2)
  Link WSL2296 (2)
  
  
  *************************
  Routing Time Step Summary
  *************************
  Minimum Time Step           :     0.42 sec
  Average Time Step           :     0.91 sec
  Maximum Time Step           :     5.00 sec
  Percent in Steady State     :     0.00
  Average Iterations per Step :     2.14
  Percent Not Converging      :     1.15
  
  
  ***************************
  Subcatchment Runoff Summary
  ***************************
  
  ------------------------------------------------------------------------------------------------------------------------------
                            Total      Total      Total      Total     Imperv       Perv      Total       Total     Peak  Runoff
                           Precip      Runon       Evap      Infil     Runoff     Runoff     Runoff      Runoff   Runoff   Coeff
  Subcatchment                 mm         mm         mm         mm         mm         mm         mm    10^6 ltr      MLD
  ------------------------------------------------------------------------------------------------------------------------------
  1                         22.16      26.55       0.00       9.88      11.53      11.87      23.40        0.28     6.52   0.480
  2                         22.16       0.00       0.00       7.97       5.29       2.37       7.66        0.26     6.90   0.345
  3                         22.16       0.00       0.00       8.02       5.22       2.00       7.22        0.37     9.68   0.326
  35                        22.16       0.00       0.00       7.95       5.30       2.47       7.77        0.24     6.33   0.351
  36                        22.16      15.28       0.00       9.56       8.59       4.65      13.24        0.78    18.33   0.354
  40                        22.16       4.10       0.00       8.44       6.19       3.03       9.22        0.36     9.26   0.351
  41                        22.16       0.00       0.00       7.89       5.36       2.93       8.29        0.16     4.41   0.374
  42                        22.16       0.00       0.00       7.91       5.34       2.76       8.10        0.18     5.02   0.365
  43                        22.16       0.00       0.00       7.54       5.48       5.11      10.58        0.04     1.13   0.478
  44                        22.16     220.05       0.00      15.49      59.12     128.50     187.62        0.69    14.75   0.775
  45                        22.16       0.00       0.00       7.78       5.42       3.68       9.10        0.09     2.64   0.410
  46                        22.16      12.98       0.00       9.15       8.32       6.15      14.47        0.31     7.65   0.412
  47                        22.16       0.00       0.00       7.79       5.41       3.59       9.00        0.10     2.80   0.406
  48                        22.16       6.30       0.00       8.50       6.84       4.88      11.72        0.19     4.85   0.412
  55                        22.16       9.46       0.00       8.62       7.65       7.16      14.82        0.12     3.24   0.469
  56                        22.16      14.24       0.00       9.25       8.61       6.50      15.10        0.32     7.91   0.415
  57                        22.16       0.00       0.00       8.01       5.22       2.02       7.24        0.36     9.53   0.327
  59                        22.16       0.00       0.00       7.74       5.43       3.94       9.37        0.08     2.24   0.423
  60                        22.16      20.46       0.00       9.30      10.34      12.98      23.32        0.12     3.08   0.547
  61                        22.16       0.00       0.00       8.12       4.90       1.16       6.06        1.09    27.22   0.273
  64                        22.16       0.00       0.00       7.81       5.41       3.49       8.90        0.11     2.99   0.401
  
  
  ****************************
  Subcatchment Washoff Summary
  ****************************
  
  ------------------------------------------------------------------------------------------
                                 COD         NH3-N            TN            TP            SS
  Subcatchment                    kg            kg            kg            kg            kg
  ------------------------------------------------------------------------------------------
  1                           49.639         0.000         0.000         0.000         0.000
  2                            0.000         0.000         0.000         0.000         0.000
  3                            0.000         0.000         0.000         0.000         0.000
  35                          49.162         0.000         0.000         0.000         0.000
  36                         268.561         0.000         0.000         0.000         0.000
  40                          92.019         0.000         0.000         0.000         0.000
  41                          34.836         0.000         0.000         0.000         0.000
  42                          39.465         0.000         0.000         0.000         0.000
  43                           9.291         0.000         0.000         0.000         0.000
  44                         237.907         0.000         0.000         0.000         0.000
  45                          21.327         0.000         0.000         0.000         0.000
  46                         103.657         0.000         0.000         0.000         0.000
  47                          22.604         0.000         0.000         0.000         0.000
  48                          53.506         0.000         0.000         0.000         0.000
  55                          38.077         0.000         0.000         0.000         0.000
  56                         108.105         0.000         0.000         0.000         0.000
  57                          72.421         0.000         0.000         0.000         0.000
  59                          18.191         0.000         0.000         0.000         0.000
  60                          36.555         0.000         0.000         0.000         0.000
  61                         194.963         0.000         0.000         0.000         0.000
  64                          24.015         0.000         0.000         0.000         0.000
  ------------------------------------------------------------------------------------------
  System                    1474.304         0.000         0.000         0.000         0.000
  
  
  ******************
  Node Depth Summary
  ******************
  
  ---------------------------------------------------------------------------------
                                 Average  Maximum  Maximum  Time of Max    Reported
                                   Depth    Depth      HGL   Occurrence   Max Depth
  Node                 Type       Meters   Meters   Meters  days hr:min      Meters
  ---------------------------------------------------------------------------------
  WS01000070           JUNCTION     0.00     0.00     0.00     0  00:00        0.00
  WS01000323           JUNCTION     0.00     0.00     0.00     0  00:00        0.00
  WS01000533           JUNCTION     0.00     0.00     6.86     0  00:00        0.00
  WS01005172           JUNCTION     0.00     0.00     0.00     0  00:00        0.00
  WS01005181           JUNCTION     0.00     0.00     0.00     0  00:00        0.00
  WS01009841           JUNCTION     0.00     0.00     0.00     0  00:00        0.00
  WS02000078           JUNCTION     0.00     0.00     0.00     0  00:00        0.00
  WS02000112           JUNCTION     0.00     0.00     0.00     0  00:00        0.00
  WS02000136           JUNCTION     0.00     0.00     0.00     0  00:00        0.00
  WS02004053           JUNCTION     0.00     0.00     0.00     0  00:00        0.00
  WS02004401           JUNCTION     2.19     2.37     8.37     0  03:01        2.37
  WS02005192           JUNCTION     0.48     1.00     8.87     0  03:17        0.82
  WS02005193           JUNCTION     0.52     0.88     8.70     0  03:00        0.86
  WS02005196           JUNCTION     0.50     0.95     8.80     0  03:17        0.84
  WS02006109           JUNCTION     1.60     1.83     8.45     0  03:00        1.83
  WS02006110           JUNCTION     1.62     1.84     8.44     0  03:00        1.84
  WS02006111           JUNCTION     1.62     1.83     8.41     0  03:00        1.83
  WS02006112           JUNCTION     2.07     2.28     8.40     0  03:00        2.27
  WS02006113           JUNCTION     1.62     1.84     8.43     0  03:00        1.84
  WS02006115           JUNCTION     2.09     2.29     8.39     0  03:00        2.28
  WS02006116           JUNCTION     2.15     2.34     8.38     0  03:00        2.34
  WS02006183           JUNCTION     0.00     0.00     0.00     0  00:00        0.00
  WS02006228           JUNCTION     1.57     1.81     8.46     0  03:00        1.81
  WS02006229           JUNCTION     1.53     1.77     8.46     0  03:00        1.77
  WS02006230           JUNCTION     1.48     1.71     8.46     0  03:01        1.71
  WS02006231           JUNCTION     1.33     1.56     8.46     0  03:01        1.56
  WS02006232           JUNCTION     1.21     1.43     8.46     0  03:00        1.43
  WS02006234           JUNCTION     1.09     1.30     8.46     0  03:00        1.30
  WS02006235           JUNCTION     1.08     1.29     8.46     0  03:00        1.29
  WS02006238           JUNCTION     1.07     1.28     8.46     0  03:00        1.28
  WS02006239           JUNCTION     1.05     1.25     8.46     0  03:00        1.25
  WS02006242           JUNCTION     0.96     1.16     8.46     0  03:00        1.16
  WS02006240           JUNCTION     0.97     1.17     8.46     0  03:00        1.17
  WS02006243           JUNCTION     0.85     1.04     8.46     0  03:00        1.04
  WS02006245           JUNCTION     0.78     0.97     8.46     0  03:00        0.97
  WS02006247           JUNCTION     0.77     0.95     8.46     0  03:00        0.95
  WS02006248           JUNCTION     0.69     0.86     8.45     0  03:01        0.86
  WS02006249           JUNCTION     0.69     0.91     8.51     0  03:00        0.90
  WS02006251           JUNCTION     0.65     0.96     8.63     0  03:00        0.95
  WS02006253           JUNCTION     0.54     0.91     8.71     0  03:17        0.87
  WS02618401           JUNCTION     0.00     0.00     0.00     0  00:00        0.00
  WSA1649              JUNCTION     0.00     0.00     0.00     0  00:00        0.00
  outfall-5            OUTFALL      0.14     0.26     7.93     0  03:01        0.26
  outfall-14           OUTFALL      0.11     0.17     7.83     0  03:01        0.17
  outfall-16           OUTFALL      0.00     0.00     8.39     0  00:00        0.00
  CC-storage           STORAGE      2.36     5.63     8.81     0  02:40        5.63
  
  
  *******************
  Node Inflow Summary
  *******************
  
  -------------------------------------------------------------------------------------------------
                                  Maximum  Maximum                  Lateral       Total        Flow
                                  Lateral    Total  Time of Max      Inflow      Inflow     Balance
                                   Inflow   Inflow   Occurrence      Volume      Volume       Error
  Node                 Type           MLD      MLD  days hr:min    10^6 ltr    10^6 ltr     Percent
  -------------------------------------------------------------------------------------------------
  WS01000070           JUNCTION      0.00     0.00     0  00:00           0           0       0.000 ltr
  WS01000323           JUNCTION      0.00     0.00     0  00:00           0           0       0.000 ltr
  WS01000533           JUNCTION      0.00     0.00     0  00:00           0           0       0.000 ltr
  WS01005172           JUNCTION      0.00     0.00     0  00:00           0           0       0.000 ltr
  WS01005181           JUNCTION      0.00     0.00     0  00:00           0           0       0.000 ltr
  WS01009841           JUNCTION      0.00     0.00     0  00:00           0           0       0.000 ltr
  WS02000078           JUNCTION      0.00     0.00     0  00:00           0           0       0.000 ltr
  WS02000112           JUNCTION      0.00     0.00     0  00:00           0           0       0.000 ltr
  WS02000136           JUNCTION      0.00     0.00     0  00:00           0           0       0.000 ltr
  WS02004053           JUNCTION      0.00     0.00     0  00:00           0           0       0.000 ltr
  WS02004401           JUNCTION      0.05    29.92     0  03:01      0.0086        1.36       2.137
  WS02005192           JUNCTION      9.62     9.62     0  03:01       0.378       0.379       0.667
  WS02005193           JUNCTION      0.09     9.81     0  03:01       0.014       0.415       1.753
  WS02005196           JUNCTION      0.12     9.73     0  03:01      0.0183       0.398       1.673
  WS02006109           JUNCTION      0.08    19.86     0  03:04      0.0129        1.09       2.247
  WS02006110           JUNCTION      0.08    19.94     0  03:04      0.0126        1.08       2.303
  WS02006111           JUNCTION      0.24    29.44     0  03:01      0.0352        1.42       1.461
  WS02006112           JUNCTION      0.18    29.59     0  03:01      0.0263        1.42       2.306
  WS02006113           JUNCTION      9.82    29.25     0  03:01       0.393        1.43       1.671
  WS02006115           JUNCTION      0.08    29.67     0  03:01      0.0129         1.4       2.720
  WS02006116           JUNCTION      0.24    29.86     0  03:01      0.0347        1.39       2.471
  WS02006183           JUNCTION      0.00     0.00     0  00:00           0           0       0.000 ltr
  WS02006228           JUNCTION     14.90    19.78     0  03:04       0.719        1.13       1.590
  WS02006229           JUNCTION      0.13    14.84     0  00:43      0.0193       0.476       3.429
  WS02006230           JUNCTION      0.07    14.85     0  00:43      0.0111       0.476       5.663
  WS02006231           JUNCTION      0.13    14.73     0  00:43      0.0197       0.476       3.202
  WS02006232           JUNCTION      6.98    14.58     0  00:42       0.271       0.604       2.505
  WS02006234           JUNCTION      0.14    14.57     0  01:21      0.0208       0.482       2.911
  WS02006235           JUNCTION      0.14    14.29     0  01:21      0.0215        0.48       1.614
  WS02006238           JUNCTION      0.15    14.06     0  00:42      0.0226       0.481       2.099
  WS02006239           JUNCTION      0.11    14.03     0  00:41      0.0167       0.485       3.199
  WS02006242           JUNCTION      0.08    14.49     0  00:40      0.0124       0.489       3.893
  WS02006240           JUNCTION      0.06    14.13     0  00:41     0.00952       0.485       3.450
  WS02006243           JUNCTION      0.17    14.69     0  00:40      0.0259       0.498       3.554
  WS02006245           JUNCTION      0.07    14.58     0  00:40      0.0109       0.487       2.770
  WS02006247           JUNCTION      6.65    14.63     0  00:39       0.306       0.744       1.555
  WS02006248           JUNCTION      0.12    58.16     0  03:01      0.0185        2.27       0.470
  WS02006249           JUNCTION      0.19    47.95     0  03:01      0.0275        1.79       0.810
  WS02006251           JUNCTION      3.30    47.79     0  03:01       0.132        1.77       0.809
  WS02006253           JUNCTION      0.11    44.48     0  03:01      0.0166        1.65       0.440
  WS02618401           JUNCTION      0.00     0.00     0  00:00           0           0       0.000 ltr
  WSA1649              JUNCTION      0.00     0.00     0  00:00           0           0       0.000 ltr
  outfall-5            OUTFALL       0.00    58.17     0  03:01           0        2.03       0.000
  outfall-14           OUTFALL       0.00    29.92     0  03:01           0        1.32       0.000
  outfall-16           OUTFALL       0.00     0.00     0  00:00           0           0       0.000 ltr
  CC-storage           STORAGE      28.68    28.68     0  03:01        1.36        1.36     -10.112
  
  
  **********************
  Node Surcharge Summary
  **********************
  
  Surcharging occurs when water rises above the top of the highest conduit.
  ---------------------------------------------------------------------
                                               Max. Height   Min. Depth
                                   Hours       Above Crown    Below Rim
  Node                 Type      Surcharged         Meters       Meters
  ---------------------------------------------------------------------
  WS01000070           JUNCTION        3.83          0.000        0.000
  WS01000323           JUNCTION        3.83          0.000        0.000
  WS01000533           JUNCTION        3.83          0.000        2.147
  WS01005172           JUNCTION        3.83          0.000        0.000
  WS01005181           JUNCTION        3.83          0.000        0.000
  WS01009841           JUNCTION        3.83          0.000        0.000
  WS02000078           JUNCTION        3.83          0.000        0.000
  WS02000112           JUNCTION        3.83          0.000        0.000
  WS02000136           JUNCTION        3.83          0.000        0.000
  WS02004053           JUNCTION        3.83          0.000        0.000
  WS02005192           JUNCTION        0.44          0.400        2.419
  WS02005193           JUNCTION        0.52          0.277        2.340
  WS02005196           JUNCTION        0.48          0.348        2.358
  WS02006109           JUNCTION        2.48          1.029        0.809
  WS02006110           JUNCTION        2.48          1.039        0.806
  WS02006111           JUNCTION        2.49          1.030        0.847
  WS02006112           JUNCTION        2.79          1.275        0.408
  WS02006113           JUNCTION        2.48          1.040        0.893
  WS02006115           JUNCTION        2.79          1.286        1.013
  WS02006116           JUNCTION        2.91          1.340        1.010
  WS02006183           JUNCTION        3.83          0.000        0.000
  WS02006228           JUNCTION        2.48          1.007        1.224
  WS02006229           JUNCTION        2.47          0.967        1.487
  WS02006231           JUNCTION        2.45          0.859        0.684
  WS02006232           JUNCTION        2.37          0.731        0.758
  WS02006234           JUNCTION        2.32          0.601        0.656
  WS02006235           JUNCTION        2.31          0.591        0.703
  WS02006238           JUNCTION        2.30          0.581        0.853
  WS02006239           JUNCTION        2.25          0.551        0.778
  WS02006242           JUNCTION        2.22          0.459        0.390
  WS02006240           JUNCTION        2.22          0.470        0.933
  WS02006243           JUNCTION        2.14          0.338        0.442
  WS02006245           JUNCTION        2.13          0.267        0.588
  WS02006247           JUNCTION        2.12          0.247        0.513
  WS02006249           JUNCTION        1.65          0.208        0.180
  WS02006251           JUNCTION        0.66          0.259        1.251
  WS02006253           JUNCTION        0.35          0.210        2.244
  WS02618401           JUNCTION        3.83          0.000        0.000
  WSA1649              JUNCTION        3.83          0.000        0.000
  
  
  *********************
  Node Flooding Summary
  *********************
  
  Flooding refers to all water that overflows a node, whether it ponds or not.
  --------------------------------------------------------------------------
                                                             Total   Maximum
                                 Maximum   Time of Max       Flood    Ponded
                        Hours       Rate    Occurrence      Volume     Depth
  Node                 Flooded       MLD   days hr:min    10^6 ltr    Meters
  --------------------------------------------------------------------------
  CC-storage              0.27     20.10      0  02:50       0.163     0.000
  
  
  **********************
  Storage Volume Summary
  **********************
  
  --------------------------------------------------------------------------------------------------
                         Average     Avg  Evap Exfil       Maximum     Max    Time of Max    Maximum
                          Volume    Pcnt  Pcnt  Pcnt        Volume    Pcnt     Occurrence    Outflow
  Storage Unit           1000 m3    Full  Loss  Loss       1000 m3    Full    days hr:min        MLD
  --------------------------------------------------------------------------------------------------
  CC-storage               0.067      42     0     0         0.159     100       0  02:40      34.56
  
  
  ***********************
  Outfall Loading Summary
  ***********************
  
  ---------------------------------------------------------------------------------------------------------------------------------
                         Flow       Avg       Max       Total         Total         Total         Total         Total         Total
                         Freq      Flow      Flow      Volume           COD         NH3-N            TN            TP            SS
  Outfall Node           Pcnt       MLD       MLD    10^6 ltr            kg            kg            kg            kg            kg
  ---------------------------------------------------------------------------------------------------------------------------------
  outfall-5             89.86     24.25     58.17       2.034       337.296         0.000         0.000         0.000         0.000
  outfall-14            89.72     15.51     29.92       1.320       236.656         0.000         0.000         0.000         0.000
  outfall-16             0.00      0.00      0.00       0.000         0.000         0.000         0.000         0.000         0.000
  ---------------------------------------------------------------------------------------------------------------------------------
  System                59.86     39.76     87.94       3.354       573.952         0.000         0.000         0.000         0.000
  
  
  ********************
  Link Flow Summary
  ********************
  
  -----------------------------------------------------------------------------
                                 Maximum  Time of Max   Maximum    Max/    Max/
                                  |Flow|   Occurrence   |Veloc|    Full    Full
  Link                 Type          MLD  days hr:min     m/sec    Flow   Depth
  -----------------------------------------------------------------------------
  WSL2038              CONDUIT      9.62     0  03:01      0.47    0.48    1.00
  WSL2039              CONDUIT      9.82     0  03:01      0.84    0.51    1.00
  WSL2041              CONDUIT      9.73     0  03:01      0.60    0.48    1.00
  WSL2294              CONDUIT     19.86     0  03:04      0.81    0.67    1.00
  WSL2295              CONDUIT     19.94     0  03:04      0.90    0.90    1.00
  WSL2296              CONDUIT     29.45     0  03:01      0.68    0.17    1.00
  WSL2297              CONDUIT     29.60     0  03:01      0.44    0.57    1.00
  WSL2298              CONDUIT     29.25     0  03:01      1.16    1.35    1.00
  WSL2301              CONDUIT     29.67     0  03:01      0.44    0.27    1.00
  WSL2302              CONDUIT     29.87     0  03:01      0.44    0.37    1.00
  WSL2441              CONDUIT     19.78     0  03:04      0.86    0.51    1.00
  WSL2442              CONDUIT     14.71     0  00:43      1.10    0.38    1.00
  WSL2443              CONDUIT     14.78     0  00:43      1.27    0.23    1.00
  WSL2444              CONDUIT     14.60     0  00:43      1.48    0.23    1.00
  WSL2446              CONDUIT     14.49     0  00:42      1.48    0.25    1.00
  WSL2447              CONDUIT     14.43     0  01:21      1.26    0.74    1.00
  WSL2448              CONDUIT     14.14     0  01:21      1.08    0.40    1.00
  WSL2449              CONDUIT     13.91     0  00:42      1.01    0.49    1.00
  WSL2450              CONDUIT     13.92     0  00:41      1.05    0.29    1.00
  WSL2451              CONDUIT     14.07     0  00:41      1.02    0.92    1.00
  WSL2452              CONDUIT     14.41     0  00:40      1.08    0.28    1.00
  WSL2454              CONDUIT     14.52     0  00:40      1.24    0.34    1.00
  WSL2478              CONDUIT     14.51     0  00:40      1.12    0.51    1.00
  WSL2479              CONDUIT     14.47     0  00:39      1.14    0.28    1.00
  WSL2480              CONDUIT     47.95     0  03:01      1.44    2.22    1.00
  WSL2482              CONDUIT     47.80     0  03:01      1.44    1.24    1.00
  WSL2484              CONDUIT     44.50     0  03:01      1.34    0.63    1.00
  WSL2493              CONDUIT     14.36     0  00:44      0.93    0.24    1.00
  8                    CONDUIT     58.17     0  03:01      7.70    0.77    0.66
  19                   CONDUIT      0.00     0  00:00      0.00    0.00    0.00
  17                   CONDUIT     29.92     0  03:01      6.64    0.39    0.43
  CC-Pump-1            PUMP        17.28     0  03:00              1.00
  CC-Pump-2            PUMP        17.28     0  01:50              1.00
  
  
  ***************************
  Flow Classification Summary
  ***************************
  
  -------------------------------------------------------------------------------------
                      Adjusted    ---------- Fraction of Time in Flow Class ---------- 
                       /Actual         Up    Down  Sub   Sup   Up    Down  Norm  Inlet 
  Conduit               Length    Dry  Dry   Dry   Crit  Crit  Crit  Crit  Ltd   Ctrl  
  -------------------------------------------------------------------------------------
  WSL2038                 1.00   0.00  0.00  0.00  1.00  0.00  0.00  0.00  0.01  0.00
  WSL2039                 1.00   0.00  0.00  0.00  1.00  0.00  0.00  0.00  0.02  0.00
  WSL2041                 1.00   0.00  0.00  0.00  1.00  0.00  0.00  0.00  0.23  0.00
  WSL2294                 1.00   0.00  0.00  0.00  1.00  0.00  0.00  0.00  0.00  0.00
  WSL2295                 1.00   0.00  0.00  0.00  1.00  0.00  0.00  0.00  0.00  0.00
  WSL2296                 1.00   0.00  0.00  0.00  1.00  0.00  0.00  0.00  0.17  0.00
  WSL2297                 1.00   0.00  0.00  0.00  1.00  0.00  0.00  0.00  0.00  0.00
  WSL2298                 1.00   0.00  0.00  0.00  0.98  0.02  0.00  0.00  0.00  0.00
  WSL2301                 1.00   0.00  0.00  0.00  1.00  0.00  0.00  0.00  0.04  0.00
  WSL2302                 1.00   0.00  0.00  0.00  1.00  0.00  0.00  0.00  0.01  0.00
  WSL2441                 1.00   0.00  0.00  0.00  1.00  0.00  0.00  0.00  0.00  0.00
  WSL2442                 1.00   0.00  0.00  0.00  1.00  0.00  0.00  0.00  0.09  0.00
  WSL2443                 1.00   0.00  0.00  0.00  1.00  0.00  0.00  0.00  0.19  0.00
  WSL2444                 1.00   0.00  0.00  0.00  0.95  0.05  0.00  0.00  0.16  0.00
  WSL2446                 1.00   0.00  0.00  0.00  0.95  0.05  0.00  0.00  0.14  0.00
  WSL2447                 1.00   0.00  0.00  0.00  1.00  0.00  0.00  0.00  0.00  0.00
  WSL2448                 1.00   0.00  0.00  0.00  1.00  0.00  0.00  0.00  0.01  0.00
  WSL2449                 1.00   0.00  0.00  0.00  1.00  0.00  0.00  0.00  0.03  0.00
  WSL2450                 1.00   0.00  0.00  0.00  1.00  0.00  0.00  0.00  0.28  0.00
  WSL2451                 1.00   0.00  0.00  0.00  1.00  0.00  0.00  0.00  0.00  0.00
  WSL2452                 1.00   0.00  0.00  0.00  1.00  0.00  0.00  0.00  0.30  0.00
  WSL2454                 1.00   0.00  0.00  0.00  1.00  0.00  0.00  0.00  0.04  0.00
  WSL2478                 1.00   0.00  0.00  0.00  1.00  0.00  0.00  0.00  0.00  0.00
  WSL2479                 1.00   0.00  0.00  0.00  1.00  0.00  0.00  0.00  0.27  0.00
  WSL2480                 1.00   0.00  0.00  0.00  1.00  0.00  0.00  0.00  0.00  0.00
  WSL2482                 1.00   0.00  0.00  0.00  1.00  0.00  0.00  0.00  0.29  0.00
  WSL2484                 1.00   0.00  0.00  0.00  1.00  0.00  0.00  0.00  0.28  0.00
  WSL2493                 1.00   0.00  0.00  0.00  1.00  0.00  0.00  0.00  0.05  0.00
  8                       1.00   0.10  0.00  0.00  0.00  0.90  0.00  0.00  0.10  0.00
  19                      1.00   1.00  0.00  0.00  0.00  0.00  0.00  0.00  0.00  0.00
  17                      1.00   0.10  0.00  0.00  0.00  0.90  0.00  0.00  0.02  0.00
  
  
  *************************
  Conduit Surcharge Summary
  *************************
  
  ----------------------------------------------------------------------------
                                                           Hours        Hours 
                         --------- Hours Full --------   Above Full   Capacity
  Conduit                Both Ends  Upstream  Dnstream   Normal Flow   Limited
  ----------------------------------------------------------------------------
  WSL2038                     0.44      0.44      0.48      0.01         0.01
  WSL2039                     0.52      0.52      0.54      0.01         0.01
  WSL2041                     0.48      0.48      0.52      0.01         0.01
  WSL2294                     2.48      2.48      2.48      0.01         0.01
  WSL2295                     2.48      2.48      2.48      0.01         0.01
  WSL2296                     2.49      2.49      3.04      0.01         0.01
  WSL2297                     2.79      2.79      2.79      0.01         0.01
  WSL2298                     2.48      2.48      2.49      0.39         0.41
  WSL2301                     2.79      2.79      2.91      0.01         0.01
  WSL2302                     2.91      2.91      2.94      0.01         0.01
  WSL2441                     2.48      2.48      2.48      0.01         0.01
  WSL2442                     2.48      2.48      2.49      0.01         0.01
  WSL2443                     2.45      2.45      2.48      0.01         0.01
  WSL2444                     2.37      2.37      2.45      0.01         0.01
  WSL2446                     2.32      2.32      2.37      0.01         0.01
  WSL2447                     2.30      2.31      2.32      0.01         0.01
  WSL2448                     2.30      2.30      2.31      0.01         0.01
  WSL2449                     2.25      2.25      2.30      0.01         0.01
  WSL2450                     2.22      2.22      2.25      0.01         0.01
  WSL2451                     2.22      2.22      2.22      0.01         0.01
  WSL2452                     2.14      2.14      2.22      0.01         0.01
  WSL2454                     2.13      2.13      2.14      0.01         0.01
  WSL2478                     2.12      2.12      2.13      0.01         0.01
  WSL2479                     1.89      1.89      2.12      0.01         0.01
  WSL2480                     1.65      1.65      1.89      0.61         0.73
  WSL2482                     0.66      0.66      1.65      0.31         0.32
  WSL2484                     0.35      0.35      0.66      0.01         0.01
  WSL2493                     2.47      2.47      2.48      0.01         0.01
  
  
  ***************
  Pumping Summary
  ***************
  
  ---------------------------------------------------------------------------------------------------------
                                                  Min       Avg       Max     Total     Power    % Time Off
                        Percent   Number of      Flow      Flow      Flow    Volume     Usage    Pump Curve
  Pump                 Utilized   Start-Ups       MLD       MLD       MLD  10^6 ltr     Kw-hr    Low   High
  ---------------------------------------------------------------------------------------------------------
  CC-Pump-1               26.09           2      0.00     10.75     17.28     0.438      3.81    0.0    0.0
  CC-Pump-2               56.50           5      0.00     10.49     17.28     0.786      6.87    0.0    0.0
  
  
  ***************************
  Link Pollutant Load Summary
  ***************************
  
  ------------------------------------------------------------------------------------------
                                 COD         NH3-N            TN            TP            SS
  Link                            kg            kg            kg            kg            kg
  ------------------------------------------------------------------------------------------
  WSL2038                     75.301         0.000         0.000         0.000         0.000
  WSL2039                     82.005         0.000         0.000         0.000         0.000
  WSL2041                     78.729         0.000         0.000         0.000         0.000
  WSL2294                    267.352         0.000         0.000         0.000         0.000
  WSL2295                    260.020         0.000         0.000         0.000         0.000
  WSL2296                    256.627         0.000         0.000         0.000         0.000
  WSL2297                    251.739         0.000         0.000         0.000         0.000
  WSL2298                    256.348         0.000         0.000         0.000         0.000
  WSL2301                    245.559         0.000         0.000         0.000         0.000
  WSL2302                    242.434         0.000         0.000         0.000         0.000
  WSL2441                    272.799         0.000         0.000         0.000         0.000
  WSL2442                     53.004         0.000         0.000         0.000         0.000
  WSL2443                     47.137         0.000         0.000         0.000         0.000
  WSL2444                     43.603         0.000         0.000         0.000         0.000
  WSL2446                     44.847         0.000         0.000         0.000         0.000
  WSL2447                     48.617         0.000         0.000         0.000         0.000
  WSL2448                     49.405         0.000         0.000         0.000         0.000
  WSL2449                     51.715         0.000         0.000         0.000         0.000
  WSL2450                     54.394         0.000         0.000         0.000         0.000
  WSL2451                     54.656         0.000         0.000         0.000         0.000
  WSL2452                     54.733         0.000         0.000         0.000         0.000
  WSL2454                     53.362         0.000         0.000         0.000         0.000
  WSL2478                     52.952         0.000         0.000         0.000         0.000
  WSL2479                     95.452         0.000         0.000         0.000         0.000
  WSL2480                    293.654         0.000         0.000         0.000         0.000
  WSL2482                    290.189         0.000         0.000         0.000         0.000
  WSL2484                    251.959         0.000         0.000         0.000         0.000
  WSL2493                     61.429         0.000         0.000         0.000         0.000
  8                          337.296         0.000         0.000         0.000         0.000
  19                           0.000         0.000         0.000         0.000         0.000
  17                         236.656         0.000         0.000         0.000         0.000
  CC-Pump-1                   63.602         0.000         0.000         0.000         0.000
  CC-Pump-2                  106.071         0.000         0.000         0.000         0.000
  

  Analysis begun on:  Fri Aug 23 19:04:53 2019
  Analysis ended on:  Fri Aug 23 19:04:54 2019
  Total elapsed time: 00:00:01