
  EPA STORM WATER MANAGEMENT MODEL - VERSION 5.1 (Build 5.2.0.dev5)
  --------------------------------------------------------------

  
  *********************************************************
  NOTE: The summary statistics displayed in this report are
  based on results found at every computational time step,  
  not just on results from each reporting time step.
  *********************************************************
  
  ****************
  Analysis Options
  ****************
  Flow Units ............... MLD
  Process Models:
    Rainfall/Runoff ........ YES
    RDII ................... NO
    Snowmelt ............... NO
    Groundwater ............ NO
    Flow Routing ........... YES
    Ponding Allowed ........ NO
    Water Quality .......... YES
  Infiltration Method ...... GREEN_AMPT
  Flow Routing Method ...... DYNWAVE
  Surcharge Method ......... EXTRAN
  Starting Date ............ 08/28/2015 08:00:00
  Ending Date .............. 08/28/2015 11:50:00
  Antecedent Dry Days ...... 4.0
  Report Time Step ......... 00:01:00
  Wet Time Step ............ 00:01:00
  Dry Time Step ............ 00:01:00
  Routing Time Step ........ 5.00 sec
  Variable Time Step ....... YES
  Maximum Trials ........... 8
  Number of Threads ........ 1
  Head Tolerance ........... 0.001500 m
  
  
  **************************        Volume         Depth
  Runoff Quantity Continuity     hectare-m            mm
  **************************     ---------       -------
  Total Precipitation ......         1.972        31.879
  Evaporation Loss .........         0.000         0.000
  Infiltration Loss ........         0.639        10.338
  Surface Runoff ...........         0.586         9.471
  Final Storage ............         0.747        12.071
  Continuity Error (%) .....        -0.004
  
  
  **************************           COD         NH3-N            TN            TP            SS
  Runoff Quality Continuity             kg            kg            kg            kg            kg
  **************************    ----------    ----------    ----------    ----------    ----------
  Initial Buildup ..........      2504.640         0.000         0.000         0.000         0.000
  Surface Buildup ..........        19.335         0.000         0.000         0.000         0.000
  Wet Deposition ...........         0.000         0.000         0.000         0.000         0.000
  Sweeping Removal .........         0.000         0.000         0.000         0.000         0.000
  Infiltration Loss ........       185.212         0.000         0.000         0.000         0.000
  BMP Removal ..............         0.000         0.000         0.000         0.000         0.000
  Surface Runoff ...........      1181.386         0.000         0.000         0.000         0.000
  Remaining Buildup ........      1156.957         0.000         0.000         0.000         0.000
  Continuity Error (%) .....         0.017         0.000         0.000         0.000         0.000
  
  
  **************************        Volume        Volume
  Flow Routing Continuity        hectare-m      10^6 ltr
  **************************     ---------     ---------
  Dry Weather Inflow .......         0.000         0.000
  Wet Weather Inflow .......         0.585         5.845
  Groundwater Inflow .......         0.000         0.000
  RDII Inflow ..............         0.000         0.000
  External Inflow ..........         0.082         0.822
  External Outflow .........         0.611         6.105
  Flooding Loss ............         0.018         0.177
  Evaporation Loss .........         0.000         0.000
  Exfiltration Loss ........         0.000         0.000
  Initial Stored Volume ....         0.000         0.000
  Final Stored Volume ......         0.055         0.547
  Continuity Error (%) .....        -2.423
  
  
  **************************           COD         NH3-N            TN            TP            SS
  Quality Routing Continuity            kg            kg            kg            kg            kg
  **************************    ----------    ----------    ----------    ----------    ----------
  Dry Weather Inflow .......         0.000         0.000         0.000         0.000         0.000
  Wet Weather Inflow .......      1179.897         0.000         0.000         0.000         0.000
  Groundwater Inflow .......         0.000         0.000         0.000         0.000         0.000
  RDII Inflow ..............         0.000         0.000         0.000         0.000         0.000
  External Inflow ..........       137.264         0.000         0.000         0.000         0.000
  External Outflow .........      1186.595         0.000         0.000         0.000         0.000
  Flooding Loss ............        45.254         0.000         0.000         0.000         0.000
  Exfiltration Loss ........         0.000         0.000         0.000         0.000         0.000
  Mass Reacted .............         0.000         0.000         0.000         0.000         0.000
  Initial Stored Mass ......         0.000         0.000         0.000         0.000         0.000
  Final Stored Mass ........        58.508         0.000         0.000         0.000         0.000
  Continuity Error (%) .....         2.035         0.000         0.000         0.000         0.000
  
  
  *************************
  Highest Continuity Errors
  *************************
  Node WS02006230 (5.79%)
  Node WS02006229 (3.57%)
  Node WS02006231 (3.36%)
  Node WS02006242 (2.97%)
  Node WS02006240 (2.76%)
  
  
  ***************************
  Time-Step Critical Elements
  ***************************
  Link 8 (88.61%)
  Link WSL2448 (6.16%)
  Link 17 (3.63%)
  
  
  ********************************
  Highest Flow Instability Indexes
  ********************************
  Link WSL2302 (2)
  Link WSL2301 (2)
  Link WSL2297 (1)
  Link WSL2296 (1)
  Link WSL2448 (1)
  
  
  *************************
  Routing Time Step Summary
  *************************
  Minimum Time Step           :     0.26 sec
  Average Time Step           :     0.80 sec
  Maximum Time Step           :     5.00 sec
  Percent in Steady State     :     0.00
  Average Iterations per Step :     2.12
  Percent Not Converging      :     1.08
  
  
  ***************************
  Subcatchment Runoff Summary
  ***************************
  
  ------------------------------------------------------------------------------------------------------------------------------
                            Total      Total      Total      Total     Imperv       Perv      Total       Total     Peak  Runoff
                           Precip      Runon       Evap      Infil     Runoff     Runoff     Runoff      Runoff   Runoff   Coeff
  Subcatchment                 mm         mm         mm         mm         mm         mm         mm    10^6 ltr      MLD
  ------------------------------------------------------------------------------------------------------------------------------
  1                         31.88      52.10       0.00      12.51      20.15      29.40      49.55        0.60     9.38   0.590
  2                         31.88       0.00       0.00       9.69       7.75       5.63      13.38        0.45     7.83   0.420
  3                         31.88       0.00       0.00       9.81       7.69       4.85      12.54        0.64    11.11   0.393
  35                        31.88       0.00       0.00       9.66       7.76       5.84      13.60        0.41     7.16   0.427
  36                        31.88      28.21       0.00      12.19      14.10      12.03      26.13        1.54    22.62   0.435
  40                        31.88       7.21       0.00      10.42       9.39       7.35      16.73        0.65    10.61   0.428
  41                        31.88       0.00       0.00       9.52       7.81       6.77      14.58        0.28     4.92   0.457
  42                        31.88       0.00       0.00       9.57       7.79       6.43      14.22        0.32     5.64   0.446
  43                        31.88       0.00       0.00       8.81       7.91      10.59      18.50        0.07     1.22   0.580
  44                        31.88     432.22       0.00      19.45     114.08     278.05     392.12        1.45    23.46   0.845
  45                        31.88       0.00       0.00       9.28       7.86       8.18      16.04        0.17     2.90   0.503
  46                        31.88      23.70       0.00      11.42      13.34      14.90      28.24        0.60     8.98   0.508
  47                        31.88       0.00       0.00       9.31       7.86       8.01      15.86        0.18     3.09   0.498
  48                        31.88      11.12       0.00      10.39      10.44      11.31      21.75        0.34     5.45   0.506
  55                        31.88      16.68       0.00      10.46      11.85      15.96      27.81        0.23     3.64   0.573
  56                        31.88      25.87       0.00      11.56      13.86      15.74      29.61        0.63     9.46   0.513
  57                        31.88       0.00       0.00       9.80       7.69       4.89      12.58        0.63    10.92   0.394
  59                        31.88       0.00       0.00       9.20       7.87       8.65      16.52        0.14     2.45   0.518
  60                        31.88      36.10       0.00      11.27      16.62      27.85      44.47        0.23     3.67   0.654
  61                        31.88       0.00       0.00      10.06       7.39       2.94      10.33        1.86    32.26   0.324
  64                        31.88       0.00       0.00       9.34       7.85       7.83      15.68        0.19     3.30   0.492
  
  
  ****************************
  Subcatchment Washoff Summary
  ****************************
  
  ------------------------------------------------------------------------------------------
                                 COD         NH3-N            TN            TP            SS
  Subcatchment                    kg            kg            kg            kg            kg
  ------------------------------------------------------------------------------------------
  1                          106.539         0.000         0.000         0.000         0.000
  2                            0.000         0.000         0.000         0.000         0.000
  3                            0.000         0.000         0.000         0.000         0.000
  35                          97.247         0.000         0.000         0.000         0.000
  36                         464.652         0.000         0.000         0.000         0.000
  40                         176.811         0.000         0.000         0.000         0.000
  41                          66.542         0.000         0.000         0.000         0.000
  42                          76.400         0.000         0.000         0.000         0.000
  43                          14.817         0.000         0.000         0.000         0.000
  44                         445.880         0.000         0.000         0.000         0.000
  45                          38.357         0.000         0.000         0.000         0.000
  46                         167.011         0.000         0.000         0.000         0.000
  47                          40.970         0.000         0.000         0.000         0.000
  48                          90.227         0.000         0.000         0.000         0.000
  55                          57.731         0.000         0.000         0.000         0.000
  56                         169.730         0.000         0.000         0.000         0.000
  57                         147.952         0.000         0.000         0.000         0.000
  59                          32.011         0.000         0.000         0.000         0.000
  60                          55.707         0.000         0.000         0.000         0.000
  61                         423.285         0.000         0.000         0.000         0.000
  64                          43.873         0.000         0.000         0.000         0.000
  ------------------------------------------------------------------------------------------
  System                    2715.742         0.000         0.000         0.000         0.000
  
  
  ******************
  Node Depth Summary
  ******************
  
  ---------------------------------------------------------------------------------
                                 Average  Maximum  Maximum  Time of Max    Reported
                                   Depth    Depth      HGL   Occurrence   Max Depth
  Node                 Type       Meters   Meters   Meters  days hr:min      Meters
  ---------------------------------------------------------------------------------
  WS01000070           JUNCTION     0.00     0.00     0.00     0  00:00        0.00
  WS01000323           JUNCTION     0.00     0.00     0.00     0  00:00        0.00
  WS01000533           JUNCTION     0.00     0.00     6.86     0  00:00        0.00
  WS01005172           JUNCTION     0.00     0.00     0.00     0  00:00        0.00
  WS01005181           JUNCTION     0.00     0.00     0.00     0  00:00        0.00
  WS01009841           JUNCTION     0.00     0.00     0.00     0  00:00        0.00
  WS02000078           JUNCTION     0.00     0.00     0.00     0  00:00        0.00
  WS02000112           JUNCTION     0.00     0.00     0.00     0  00:00        0.00
  WS02000136           JUNCTION     0.00     0.00     0.00     0  00:00        0.00
  WS02004053           JUNCTION     0.00     0.00     0.00     0  00:00        0.00
  WS02004401           JUNCTION     2.24     2.39     8.39     0  02:30        2.39
  WS02005192           JUNCTION     0.59     2.40    10.27     0  01:32        0.84
  WS02005193           JUNCTION     0.64     2.68    10.50     0  01:33        0.88
  WS02005196           JUNCTION     0.61     1.74     9.59     0  01:32        0.86
  WS02006109           JUNCTION     1.68     1.86     8.48     0  02:30        1.86
  WS02006110           JUNCTION     1.69     1.86     8.46     0  02:30        1.86
  WS02006111           JUNCTION     1.69     1.85     8.43     0  02:30        1.85
  WS02006112           JUNCTION     2.13     2.29     8.41     0  02:30        2.29
  WS02006113           JUNCTION     1.69     1.86     8.45     0  02:30        1.86
  WS02006115           JUNCTION     2.15     2.30     8.40     0  02:30        2.30
  WS02006116           JUNCTION     2.20     2.36     8.40     0  02:30        2.36
  WS02006183           JUNCTION     0.00     0.00     0.00     0  00:00        0.00
  WS02006228           JUNCTION     1.66     1.84     8.49     0  02:30        1.84
  WS02006229           JUNCTION     1.62     1.80     8.49     0  02:30        1.80
  WS02006230           JUNCTION     1.56     1.74     8.49     0  02:30        1.74
  WS02006231           JUNCTION     1.41     1.59     8.49     0  02:30        1.59
  WS02006232           JUNCTION     1.29     1.46     8.49     0  03:00        1.46
  WS02006234           JUNCTION     1.17     1.33     8.49     0  03:00        1.32
  WS02006235           JUNCTION     1.16     1.32     8.49     0  03:00        1.31
  WS02006238           JUNCTION     1.15     1.31     8.49     0  03:00        1.30
  WS02006239           JUNCTION     1.12     1.28     8.49     0  03:00        1.27
  WS02006242           JUNCTION     1.04     1.18     8.48     0  03:00        1.18
  WS02006240           JUNCTION     1.04     1.20     8.49     0  03:00        1.19
  WS02006243           JUNCTION     0.92     1.06     8.48     0  03:00        1.06
  WS02006245           JUNCTION     0.85     0.99     8.48     0  03:00        0.99
  WS02006247           JUNCTION     0.83     0.97     8.48     0  03:00        0.97
  WS02006248           JUNCTION     0.75     0.88     8.47     0  03:00        0.88
  WS02006249           JUNCTION     0.77     1.09     8.69     0  01:33        0.92
  WS02006251           JUNCTION     0.75     2.21     9.88     0  01:33        0.97
  WS02006253           JUNCTION     0.65     0.96     8.76     0  03:16        0.89
  WS02618401           JUNCTION     0.00     0.00     0.00     0  00:00        0.00
  WSA1649              JUNCTION     0.00     0.00     0.00     0  00:00        0.00
  outfall-5            OUTFALL      0.19     0.28     7.95     0  03:00        0.28
  outfall-14           OUTFALL      0.14     0.19     7.85     0  02:30        0.19
  outfall-16           OUTFALL      0.00     0.00     8.39     0  00:00        0.00
  CC-storage           STORAGE      2.64     5.63     8.81     0  02:43        5.63
  
  
  *******************
  Node Inflow Summary
  *******************
  
  -------------------------------------------------------------------------------------------------
                                  Maximum  Maximum                  Lateral       Total        Flow
                                  Lateral    Total  Time of Max      Inflow      Inflow     Balance
                                   Inflow   Inflow   Occurrence      Volume      Volume       Error
  Node                 Type           MLD      MLD  days hr:min    10^6 ltr    10^6 ltr     Percent
  -------------------------------------------------------------------------------------------------
  WS01000070           JUNCTION      0.00     0.00     0  00:00           0           0       0.000 ltr
  WS01000323           JUNCTION      0.00     0.00     0  00:00           0           0       0.000 ltr
  WS01000533           JUNCTION      0.00     0.00     0  00:00           0           0       0.000 ltr
  WS01005172           JUNCTION      0.00     0.00     0  00:00           0           0       0.000 ltr
  WS01005181           JUNCTION      0.00     0.00     0  00:00           0           0       0.000 ltr
  WS01009841           JUNCTION      0.00     0.00     0  00:00           0           0       0.000 ltr
  WS02000078           JUNCTION      0.00     0.00     0  00:00           0           0       0.000 ltr
  WS02000112           JUNCTION      0.00     0.00     0  00:00           0           0       0.000 ltr
  WS02000136           JUNCTION      0.00     0.00     0  00:00           0           0       0.000 ltr
  WS02004053           JUNCTION      0.00     0.00     0  00:00           0           0       0.000 ltr
  WS02004401           JUNCTION      0.05    34.69     0  02:30      0.0086        2.33       1.245
  WS02005192           JUNCTION     11.02    12.93     0  01:32       0.645       0.648       0.413
  WS02005193           JUNCTION      0.09    18.20     0  01:33       0.014       0.694       1.004
  WS02005196           JUNCTION      0.12    16.07     0  01:32      0.0183       0.673       1.060
  WS02006109           JUNCTION      0.08    24.07     0  03:01      0.0129        1.76       1.383
  WS02006110           JUNCTION      0.08    24.14     0  03:01      0.0126        1.76       1.402
  WS02006111           JUNCTION      0.24    34.20     0  02:30      0.0352        2.38       0.867
  WS02006112           JUNCTION      0.18    34.35     0  02:30      0.0263        2.39       1.360
  WS02006113           JUNCTION     11.26    33.99     0  02:30       0.664        2.39       0.996
  WS02006115           JUNCTION      0.08    34.43     0  02:30      0.0129        2.37       1.594
  WS02006116           JUNCTION      0.24    34.64     0  02:30      0.0347        2.36       1.438
  WS02006183           JUNCTION      0.00     0.00     0  00:00           0           0       0.000 ltr
  WS02006228           JUNCTION     23.61    23.99     0  03:01        1.47        1.83       0.986
  WS02006229           JUNCTION      0.13    20.76     0  00:51      0.0193       0.445       3.700
  WS02006230           JUNCTION      0.07    21.09     0  00:51      0.0111       0.446       6.149
  WS02006231           JUNCTION      0.13    20.86     0  00:50      0.0197       0.441       3.474
  WS02006232           JUNCTION      7.91    20.62     0  00:50       0.463       0.727       2.137
  WS02006234           JUNCTION      0.14    20.22     0  00:50      0.0208       0.573       2.461
  WS02006235           JUNCTION      0.14    19.90     0  00:50      0.0215       0.571       1.355
  WS02006238           JUNCTION      0.15    19.85     0  00:49      0.0226       0.577       1.751
  WS02006239           JUNCTION      0.11    19.85     0  00:49      0.0167       0.585       2.667
  WS02006242           JUNCTION      0.08    20.76     0  00:48      0.0124       0.615       3.066
  WS02006240           JUNCTION      0.06    20.10     0  00:49     0.00952       0.595       2.835
  WS02006243           JUNCTION      0.17    21.39     0  00:48      0.0259        0.64       2.739
  WS02006245           JUNCTION      0.07    21.43     0  00:48      0.0109       0.646       2.071
  WS02006247           JUNCTION      9.52    21.59     0  00:47       0.622        1.25       0.901
  WS02006248           JUNCTION      0.12    63.72     0  03:00      0.0185        4.03       0.265
  WS02006249           JUNCTION      0.19    49.70     0  02:22      0.0275        2.99       0.486
  WS02006251           JUNCTION      3.70    49.54     0  02:22        0.24        2.98       0.482
  WS02006253           JUNCTION      0.11    45.88     0  02:22      0.0166        2.76       0.270
  WS02618401           JUNCTION      0.00     0.00     0  00:00           0           0       0.000 ltr
  WSA1649              JUNCTION      0.00     0.00     0  00:00           0           0       0.000 ltr
  outfall-5            OUTFALL       0.00    63.75     0  03:00           0        3.82       0.000
  outfall-14           OUTFALL       0.00    34.69     0  02:30           0        2.29       0.000
  outfall-16           OUTFALL       0.00     0.00     0  00:00           0           0       0.000 ltr
  CC-storage           STORAGE      33.88    33.88     0  02:24        2.13        2.13      -8.438
  
  
  **********************
  Node Surcharge Summary
  **********************
  
  Surcharging occurs when water rises above the top of the highest conduit.
  ---------------------------------------------------------------------
                                               Max. Height   Min. Depth
                                   Hours       Above Crown    Below Rim
  Node                 Type      Surcharged         Meters       Meters
  ---------------------------------------------------------------------
  WS01000070           JUNCTION        3.83          0.000        0.000
  WS01000323           JUNCTION        3.83          0.000        0.000
  WS01000533           JUNCTION        3.83          0.000        2.147
  WS01005172           JUNCTION        3.83          0.000        0.000
  WS01005181           JUNCTION        3.83          0.000        0.000
  WS01009841           JUNCTION        3.83          0.000        0.000
  WS02000078           JUNCTION        3.83          0.000        0.000
  WS02000112           JUNCTION        3.83          0.000        0.000
  WS02000136           JUNCTION        3.83          0.000        0.000
  WS02004053           JUNCTION        3.83          0.000        0.000
  WS02005192           JUNCTION        1.36          1.796        1.023
  WS02005193           JUNCTION        1.51          2.084        0.533
  WS02005196           JUNCTION        1.42          1.138        1.568
  WS02006109           JUNCTION        2.55          1.056        0.782
  WS02006110           JUNCTION        2.56          1.063        0.782
  WS02006111           JUNCTION        2.58          1.048        0.829
  WS02006112           JUNCTION        2.82          1.291        0.392
  WS02006113           JUNCTION        2.57          1.062        0.871
  WS02006115           JUNCTION        2.84          1.302        0.997
  WS02006116           JUNCTION        2.91          1.356        0.994
  WS02006183           JUNCTION        3.83          0.000        0.000
  WS02006228           JUNCTION        2.53          1.036        1.195
  WS02006229           JUNCTION        2.50          0.996        1.458
  WS02006231           JUNCTION        2.43          0.886        0.657
  WS02006232           JUNCTION        2.39          0.757        0.732
  WS02006234           JUNCTION        2.36          0.628        0.629
  WS02006235           JUNCTION        2.36          0.618        0.676
  WS02006238           JUNCTION        2.36          0.608        0.826
  WS02006239           JUNCTION        2.35          0.577        0.752
  WS02006242           JUNCTION        2.34          0.485        0.364
  WS02006240           JUNCTION        2.34          0.496        0.907
  WS02006243           JUNCTION        2.32          0.363        0.417
  WS02006245           JUNCTION        2.31          0.291        0.564
  WS02006247           JUNCTION        2.31          0.269        0.491
  WS02006249           JUNCTION        2.04          0.388        0.000
  WS02006251           JUNCTION        1.67          1.510        0.000
  WS02006253           JUNCTION        1.15          0.255        2.199
  WS02618401           JUNCTION        3.83          0.000        0.000
  WSA1649              JUNCTION        3.83          0.000        0.000
  
  
  *********************
  Node Flooding Summary
  *********************
  
  Flooding refers to all water that overflows a node, whether it ponds or not.
  --------------------------------------------------------------------------
                                                             Total   Maximum
                                 Maximum   Time of Max       Flood    Ponded
                        Hours       Rate    Occurrence      Volume     Depth
  Node                 Flooded       MLD   days hr:min    10^6 ltr    Meters
  --------------------------------------------------------------------------
  WS02006249              0.01      5.47      0  01:33       0.000     0.000
  WS02006251              0.01     12.64      0  01:33       0.000     0.000
  CC-storage              0.23     28.42      0  02:50       0.177     0.000
  
  
  **********************
  Storage Volume Summary
  **********************
  
  --------------------------------------------------------------------------------------------------
                         Average     Avg  Evap Exfil       Maximum     Max    Time of Max    Maximum
                          Volume    Pcnt  Pcnt  Pcnt        Volume    Pcnt     Occurrence    Outflow
  Storage Unit           1000 m3    Full  Loss  Loss       1000 m3    Full    days hr:min        MLD
  --------------------------------------------------------------------------------------------------
  CC-storage               0.075      47     0     0         0.159     100       0  02:43      34.56
  
  
  ***********************
  Outfall Loading Summary
  ***********************
  
  ---------------------------------------------------------------------------------------------------------------------------------
                         Flow       Avg       Max       Total         Total         Total         Total         Total         Total
                         Freq      Flow      Flow      Volume           COD         NH3-N            TN            TP            SS
  Outfall Node           Pcnt       MLD       MLD    10^6 ltr            kg            kg            kg            kg            kg
  ---------------------------------------------------------------------------------------------------------------------------------
  outfall-5             92.34     40.99     63.75       3.816       725.938         0.000         0.000         0.000         0.000
  outfall-14            92.34     24.46     34.69       2.289       460.675         0.000         0.000         0.000         0.000
  outfall-16             0.00      0.00      0.00       0.000         0.000         0.000         0.000         0.000         0.000
  ---------------------------------------------------------------------------------------------------------------------------------
  System                61.56     65.45     97.91       6.105      1186.613         0.000         0.000         0.000         0.000
  
  
  ********************
  Link Flow Summary
  ********************
  
  -----------------------------------------------------------------------------
                                 Maximum  Time of Max   Maximum    Max/    Max/
                                  |Flow|   Occurrence   |Veloc|    Full    Full
  Link                 Type          MLD  days hr:min     m/sec    Flow   Depth
  -----------------------------------------------------------------------------
  WSL2038              CONDUIT     11.02     0  02:22      0.53    0.55    1.00
  WSL2039              CONDUIT     17.22     0  01:32      0.92    0.89    1.00
  WSL2041              CONDUIT     15.95     0  01:32      0.85    0.78    1.00
  WSL2294              CONDUIT     24.07     0  03:01      0.87    0.81    1.00
  WSL2295              CONDUIT     24.14     0  03:01      0.83    1.09    1.00
  WSL2296              CONDUIT     34.20     0  02:30      0.79    0.19    1.00
  WSL2297              CONDUIT     34.35     0  02:30      0.51    0.66    1.00
  WSL2298              CONDUIT     33.99     0  02:30      1.01    1.56    1.00
  WSL2301              CONDUIT     34.43     0  02:30      0.51    0.32    1.00
  WSL2302              CONDUIT     34.64     0  02:30      0.51    0.43    1.00
  WSL2441              CONDUIT     23.99     0  03:01      0.95    0.61    1.00
  WSL2442              CONDUIT     20.63     0  00:51      1.23    0.53    1.00
  WSL2443              CONDUIT     21.02     0  00:51      1.40    0.33    1.00
  WSL2444              CONDUIT     20.73     0  00:50      1.61    0.33    1.00
  WSL2446              CONDUIT     20.53     0  00:50      1.61    0.35    1.00
  WSL2447              CONDUIT     20.08     0  00:50      1.39    1.03    1.00
  WSL2448              CONDUIT     19.76     0  00:50      1.21    0.56    1.00
  WSL2449              CONDUIT     19.70     0  00:49      1.14    0.69    1.00
  WSL2450              CONDUIT     19.74     0  00:49      1.17    0.41    1.00
  WSL2451              CONDUIT     20.04     0  00:49      1.15    1.31    1.00
  WSL2452              CONDUIT     20.68     0  00:48      1.21    0.39    1.00
  WSL2454              CONDUIT     21.22     0  00:48      1.35    0.50    1.00
  WSL2478              CONDUIT     21.36     0  00:48      1.26    0.75    1.00
  WSL2479              CONDUIT     21.43     0  00:47      1.28    0.41    1.00
  WSL2480              CONDUIT     49.70     0  02:22      1.49    2.30    1.00
  WSL2482              CONDUIT     49.54     0  02:22      1.49    1.29    1.00
  WSL2484              CONDUIT     45.88     0  02:22      1.45    0.65    1.00
  WSL2493              CONDUIT     20.37     0  00:51      1.06    0.34    1.00
  8                    CONDUIT     63.75     0  03:00      7.82    0.84    0.70
  19                   CONDUIT      0.00     0  00:00      0.00    0.00    0.00
  17                   CONDUIT     34.69     0  02:30      6.90    0.45    0.47
  CC-Pump-1            PUMP        17.28     0  02:10              1.00
  CC-Pump-2            PUMP        17.28     0  02:00              1.00
  
  
  ***************************
  Flow Classification Summary
  ***************************
  
  -------------------------------------------------------------------------------------
                      Adjusted    ---------- Fraction of Time in Flow Class ---------- 
                       /Actual         Up    Down  Sub   Sup   Up    Down  Norm  Inlet 
  Conduit               Length    Dry  Dry   Dry   Crit  Crit  Crit  Crit  Ltd   Ctrl  
  -------------------------------------------------------------------------------------
  WSL2038                 1.00   0.00  0.00  0.00  1.00  0.00  0.00  0.00  0.01  0.00
  WSL2039                 1.00   0.00  0.00  0.00  1.00  0.00  0.00  0.00  0.01  0.00
  WSL2041                 1.00   0.00  0.00  0.00  1.00  0.00  0.00  0.00  0.20  0.00
  WSL2294                 1.00   0.00  0.00  0.00  1.00  0.00  0.00  0.00  0.00  0.00
  WSL2295                 1.00   0.00  0.00  0.00  1.00  0.00  0.00  0.00  0.00  0.00
  WSL2296                 1.00   0.00  0.00  0.00  1.00  0.00  0.00  0.00  0.17  0.00
  WSL2297                 1.00   0.00  0.00  0.00  1.00  0.00  0.00  0.00  0.00  0.00
  WSL2298                 1.00   0.00  0.00  0.00  0.98  0.02  0.00  0.00  0.00  0.00
  WSL2301                 1.00   0.00  0.00  0.00  1.00  0.00  0.00  0.00  0.04  0.00
  WSL2302                 1.00   0.00  0.00  0.00  1.00  0.00  0.00  0.00  0.01  0.00
  WSL2441                 1.00   0.00  0.00  0.00  1.00  0.00  0.00  0.00  0.00  0.00
  WSL2442                 1.00   0.00  0.00  0.00  1.00  0.00  0.00  0.00  0.13  0.00
  WSL2443                 1.00   0.00  0.00  0.00  1.00  0.00  0.00  0.00  0.20  0.00
  WSL2444                 1.00   0.00  0.00  0.00  0.96  0.04  0.00  0.00  0.17  0.00
  WSL2446                 1.00   0.00  0.00  0.00  0.95  0.05  0.00  0.00  0.08  0.00
  WSL2447                 1.00   0.00  0.00  0.00  1.00  0.00  0.00  0.00  0.00  0.00
  WSL2448                 1.00   0.00  0.00  0.00  1.00  0.00  0.00  0.00  0.01  0.00
  WSL2449                 1.00   0.00  0.00  0.00  1.00  0.00  0.00  0.00  0.04  0.00
  WSL2450                 1.00   0.00  0.00  0.00  1.00  0.00  0.00  0.00  0.25  0.00
  WSL2451                 1.00   0.00  0.00  0.00  1.00  0.00  0.00  0.00  0.00  0.00
  WSL2452                 1.00   0.00  0.00  0.00  1.00  0.00  0.00  0.00  0.31  0.00
  WSL2454                 1.00   0.00  0.00  0.00  1.00  0.00  0.00  0.00  0.04  0.00
  WSL2478                 1.00   0.00  0.00  0.00  1.00  0.00  0.00  0.00  0.00  0.00
  WSL2479                 1.00   0.00  0.00  0.00  1.00  0.00  0.00  0.00  0.28  0.00
  WSL2480                 1.00   0.00  0.00  0.00  1.00  0.00  0.00  0.00  0.00  0.00
  WSL2482                 1.00   0.00  0.00  0.00  1.00  0.00  0.00  0.00  0.29  0.00
  WSL2484                 1.00   0.00  0.00  0.00  1.00  0.00  0.00  0.00  0.27  0.00
  WSL2493                 1.00   0.00  0.00  0.00  1.00  0.00  0.00  0.00  0.05  0.00
  8                       1.00   0.08  0.00  0.00  0.00  0.92  0.00  0.00  0.06  0.00
  19                      1.00   1.00  0.00  0.00  0.00  0.00  0.00  0.00  0.00  0.00
  17                      1.00   0.08  0.00  0.00  0.00  0.92  0.00  0.00  0.01  0.00
  
  
  *************************
  Conduit Surcharge Summary
  *************************
  
  ----------------------------------------------------------------------------
                                                           Hours        Hours 
                         --------- Hours Full --------   Above Full   Capacity
  Conduit                Both Ends  Upstream  Dnstream   Normal Flow   Limited
  ----------------------------------------------------------------------------
  WSL2038                     1.35      1.36      1.42      0.01         0.01
  WSL2039                     1.50      1.51      1.58      0.01         0.01
  WSL2041                     1.42      1.42      1.51      0.01         0.01
  WSL2294                     2.55      2.55      2.56      0.01         0.01
  WSL2295                     2.56      2.56      2.57      0.53         0.55
  WSL2296                     2.58      2.58      2.94      0.01         0.01
  WSL2297                     2.82      2.82      2.83      0.01         0.01
  WSL2298                     2.57      2.57      2.58      1.46         1.49
  WSL2301                     2.83      2.83      2.91      0.01         0.01
  WSL2302                     2.91      2.91      2.93      0.01         0.01
  WSL2441                     2.53      2.53      2.55      0.01         0.01
  WSL2442                     2.53      2.53      2.57      0.01         0.01
  WSL2443                     2.43      2.43      2.53      0.01         0.01
  WSL2444                     2.39      2.39      2.43      0.01         0.01
  WSL2446                     2.36      2.36      2.39      0.01         0.01
  WSL2447                     2.36      2.36      2.36      0.01         0.01
  WSL2448                     2.36      2.36      2.36      0.01         0.01
  WSL2449                     2.35      2.35      2.36      0.01         0.01
  WSL2450                     2.34      2.34      2.35      0.01         0.01
  WSL2451                     2.34      2.34      2.34      0.04         0.01
  WSL2452                     2.32      2.32      2.34      0.01         0.01
  WSL2454                     2.31      2.31      2.32      0.01         0.01
  WSL2478                     2.31      2.31      2.31      0.01         0.01
  WSL2479                     2.15      2.15      2.31      0.01         0.01
  WSL2480                     2.04      2.04      2.15      1.50         1.51
  WSL2482                     1.67      1.67      2.04      0.84         0.84
  WSL2484                     1.15      1.15      1.67      0.01         0.01
  WSL2493                     2.50      2.50      2.53      0.01         0.01
  
  
  ***************
  Pumping Summary
  ***************
  
  ---------------------------------------------------------------------------------------------------------
                                                  Min       Avg       Max     Total     Power    % Time Off
                        Percent   Number of      Flow      Flow      Flow    Volume     Usage    Pump Curve
  Pump                 Utilized   Start-Ups       MLD       MLD       MLD  10^6 ltr     Kw-hr    Low   High
  ---------------------------------------------------------------------------------------------------------
  CC-Pump-1               47.83           3      0.00     12.62     17.28     0.855      6.96    0.0    0.0
  CC-Pump-2               65.21           3      0.00     13.12     17.28     1.215      8.82    0.0    0.0
  
  
  ***************************
  Link Pollutant Load Summary
  ***************************
  
  ------------------------------------------------------------------------------------------
                                 COD         NH3-N            TN            TP            SS
  Link                            kg            kg            kg            kg            kg
  ------------------------------------------------------------------------------------------
  WSL2038                    151.595         0.000         0.000         0.000         0.000
  WSL2039                    159.753         0.000         0.000         0.000         0.000
  WSL2041                    156.104         0.000         0.000         0.000         0.000
  WSL2294                    472.699         0.000         0.000         0.000         0.000
  WSL2295                    469.318         0.000         0.000         0.000         0.000
  WSL2296                    471.424         0.000         0.000         0.000         0.000
  WSL2297                    470.306         0.000         0.000         0.000         0.000
  WSL2298                    468.358         0.000         0.000         0.000         0.000
  WSL2301                    467.356         0.000         0.000         0.000         0.000
  WSL2302                    467.386         0.000         0.000         0.000         0.000
  WSL2441                    474.592         0.000         0.000         0.000         0.000
  WSL2442                     51.874         0.000         0.000         0.000         0.000
  WSL2443                     41.728         0.000         0.000         0.000         0.000
  WSL2444                     33.475         0.000         0.000         0.000         0.000
  WSL2446                     31.151         0.000         0.000         0.000         0.000
  WSL2447                     32.860         0.000         0.000         0.000         0.000
  WSL2448                     33.860         0.000         0.000         0.000         0.000
  WSL2449                     36.404         0.000         0.000         0.000         0.000
  WSL2450                     39.084         0.000         0.000         0.000         0.000
  WSL2451                     42.272         0.000         0.000         0.000         0.000
  WSL2452                     45.937         0.000         0.000         0.000         0.000
  WSL2454                     49.124         0.000         0.000         0.000         0.000
  WSL2478                     51.301         0.000         0.000         0.000         0.000
  WSL2479                    159.074         0.000         0.000         0.000         0.000
  WSL2480                    615.170         0.000         0.000         0.000         0.000
  WSL2482                    611.857         0.000         0.000         0.000         0.000
  WSL2484                    553.582         0.000         0.000         0.000         0.000
  WSL2493                     63.918         0.000         0.000         0.000         0.000
  8                          725.938         0.000         0.000         0.000         0.000
  19                           0.000         0.000         0.000         0.000         0.000
  17                         460.675         0.000         0.000         0.000         0.000
  CC-Pump-1                  163.246         0.000         0.000         0.000         0.000
  CC-Pump-2                  232.166         0.000         0.000         0.000         0.000
  

  Analysis begun on:  Fri Aug 23 19:05:13 2019
  Analysis ended on:  Fri Aug 23 19:05:14 2019
  Total elapsed time: 00:00:01