
  EPA STORM WATER MANAGEMENT MODEL - VERSION 5.1 (Build 5.2.0.dev5)
  --------------------------------------------------------------

  
  *********************************************************
  NOTE: The summary statistics displayed in this report are
  based on results found at every computational time step,  
  not just on results from each reporting time step.
  *********************************************************
  
  ****************
  Analysis Options
  ****************
  Flow Units ............... MLD
  Process Models:
    Rainfall/Runoff ........ YES
    RDII ................... NO
    Snowmelt ............... NO
    Groundwater ............ NO
    Flow Routing ........... YES
    Ponding Allowed ........ NO
    Water Quality .......... YES
  Infiltration Method ...... GREEN_AMPT
  Flow Routing Method ...... DYNWAVE
  Surcharge Method ......... EXTRAN
  Starting Date ............ 08/28/2015 08:00:00
  Ending Date .............. 08/28/2015 11:50:00
  Antecedent Dry Days ...... 4.0
  Report Time Step ......... 00:01:00
  Wet Time Step ............ 00:01:00
  Dry Time Step ............ 00:01:00
  Routing Time Step ........ 5.00 sec
  Variable Time Step ....... YES
  Maximum Trials ........... 8
  Number of Threads ........ 1
  Head Tolerance ........... 0.001500 m
  
  
  **************************        Volume         Depth
  Runoff Quantity Continuity     hectare-m            mm
  **************************     ---------       -------
  Total Precipitation ......         1.821        29.445
  Evaporation Loss .........         0.000         0.000
  Infiltration Loss ........         0.617         9.973
  Surface Runoff ...........         0.521         8.420
  Final Storage ............         0.684        11.052
  Continuity Error (%) .....        -0.004
  
  
  **************************           COD         NH3-N            TN            TP            SS
  Runoff Quality Continuity             kg            kg            kg            kg            kg
  **************************    ----------    ----------    ----------    ----------    ----------
  Initial Buildup ..........      2504.640         0.000         0.000         0.000         0.000
  Surface Buildup ..........        19.473         0.000         0.000         0.000         0.000
  Wet Deposition ...........         0.000         0.000         0.000         0.000         0.000
  Sweeping Removal .........         0.000         0.000         0.000         0.000         0.000
  Infiltration Loss ........       176.156         0.000         0.000         0.000         0.000
  BMP Removal ..............         0.000         0.000         0.000         0.000         0.000
  Surface Runoff ...........      1058.807         0.000         0.000         0.000         0.000
  Remaining Buildup ........      1288.179         0.000         0.000         0.000         0.000
  Continuity Error (%) .....         0.039         0.000         0.000         0.000         0.000
  
  
  **************************        Volume        Volume
  Flow Routing Continuity        hectare-m      10^6 ltr
  **************************     ---------     ---------
  Dry Weather Inflow .......         0.000         0.000
  Wet Weather Inflow .......         0.520         5.197
  Groundwater Inflow .......         0.000         0.000
  RDII Inflow ..............         0.000         0.000
  External Inflow ..........         0.082         0.822
  External Outflow .........         0.530         5.296
  Flooding Loss ............         0.029         0.291
  Evaporation Loss .........         0.000         0.000
  Exfiltration Loss ........         0.000         0.000
  Initial Stored Volume ....         0.000         0.000
  Final Stored Volume ......         0.047         0.468
  Continuity Error (%) .....        -0.600
  
  
  **************************           COD         NH3-N            TN            TP            SS
  Quality Routing Continuity            kg            kg            kg            kg            kg
  **************************    ----------    ----------    ----------    ----------    ----------
  Dry Weather Inflow .......         0.000         0.000         0.000         0.000         0.000
  Wet Weather Inflow .......      1057.377         0.000         0.000         0.000         0.000
  Groundwater Inflow .......         0.000         0.000         0.000         0.000         0.000
  RDII Inflow ..............         0.000         0.000         0.000         0.000         0.000
  External Inflow ..........       137.264         0.000         0.000         0.000         0.000
  External Outflow .........      1042.421         0.000         0.000         0.000         0.000
  Flooding Loss ............        79.047         0.000         0.000         0.000         0.000
  Exfiltration Loss ........         0.000         0.000         0.000         0.000         0.000
  Mass Reacted .............         0.000         0.000         0.000         0.000         0.000
  Initial Stored Mass ......         0.000         0.000         0.000         0.000         0.000
  Final Stored Mass ........        52.430         0.000         0.000         0.000         0.000
  Continuity Error (%) .....         1.736         0.000         0.000         0.000         0.000
  
  
  *************************
  Highest Continuity Errors
  *************************
  Node WS02006230 (6.35%)
  Node WS02006229 (3.88%)
  Node WS02006231 (3.44%)
  Node WS02006242 (2.79%)
  Node WS02006243 (2.55%)
  
  
  ***************************
  Time-Step Critical Elements
  ***************************
  Link 8 (89.52%)
  Link WSL2448 (7.15%)
  Link 17 (1.73%)
  
  
  ********************************
  Highest Flow Instability Indexes
  ********************************
  Link WSL2301 (2)
  Link WSL2302 (2)
  Link WSL2297 (2)
  Link WSL2493 (2)
  Link WSL2296 (1)
  
  
  *************************
  Routing Time Step Summary
  *************************
  Minimum Time Step           :     0.47 sec
  Average Time Step           :     0.81 sec
  Maximum Time Step           :     5.00 sec
  Percent in Steady State     :    -0.00
  Average Iterations per Step :     2.14
  Percent Not Converging      :     1.32
  
  
  ***************************
  Subcatchment Runoff Summary
  ***************************
  
  ------------------------------------------------------------------------------------------------------------------------------
                            Total      Total      Total      Total     Imperv       Perv      Total       Total     Peak  Runoff
                           Precip      Runon       Evap      Infil     Runoff     Runoff     Runoff      Runoff   Runoff   Coeff
  Subcatchment                 mm         mm         mm         mm         mm         mm         mm    10^6 ltr      MLD
  ------------------------------------------------------------------------------------------------------------------------------
  1                         29.45      45.93       0.00      12.03      18.06      25.17      43.23        0.52     8.15   0.573
  2                         29.45       0.00       0.00       9.37       7.14       4.84      11.98        0.40     7.05   0.407
  3                         29.45       0.00       0.00       9.47       7.08       4.15      11.24        0.57    10.01   0.382
  35                        29.45       0.00       0.00       9.34       7.16       5.02      12.18        0.37     6.44   0.414
  36                        29.45      25.07       0.00      11.70      12.77      10.22      22.99        1.36    19.85   0.422
  40                        29.45       6.45       0.00      10.05       8.60       6.30      14.90        0.58     9.51   0.415
  41                        29.45       0.00       0.00       9.21       7.20       5.84      13.04        0.25     4.43   0.443
  42                        29.45       0.00       0.00       9.26       7.19       5.54      12.72        0.29     5.07   0.432
  43                        29.45       0.00       0.00       8.57       7.31       9.28      16.58        0.06     1.09   0.563
  44                        29.45     380.59       0.00      18.71     100.71     242.22     342.93        1.27    20.58   0.836
  45                        29.45       0.00       0.00       9.00       7.25       7.10      14.35        0.15     2.60   0.487
  46                        29.45      21.10       0.00      11.00      12.12      12.79      24.91        0.53     7.93   0.493
  47                        29.45       0.00       0.00       9.03       7.25       6.94      14.19        0.16     2.77   0.482
  48                        29.45       9.95       0.00      10.04       9.56       9.76      19.32        0.31     4.86   0.490
  55                        29.45      14.92       0.00      10.12      10.82      13.86      24.68        0.20     3.23   0.556
  56                        29.45      23.06       0.00      11.14      12.59      13.51      26.10        0.56     8.31   0.497
  57                        29.45       0.00       0.00       9.47       7.09       4.18      11.27        0.56     9.85   0.383
  59                        29.45       0.00       0.00       8.92       7.27       7.52      14.78        0.12     2.20   0.502
  60                        29.45      32.29       0.00      10.91      15.08      24.32      39.41        0.20     3.24   0.638
  61                        29.45       0.00       0.00       9.70       6.79       2.50       9.29        1.67    29.13   0.315
  64                        29.45       0.00       0.00       9.05       7.24       6.79      14.03        0.17     2.96   0.476
  
  
  ****************************
  Subcatchment Washoff Summary
  ****************************
  
  ------------------------------------------------------------------------------------------
                                 COD         NH3-N            TN            TP            SS
  Subcatchment                    kg            kg            kg            kg            kg
  ------------------------------------------------------------------------------------------
  1                           96.341         0.000         0.000         0.000         0.000
  2                            0.000         0.000         0.000         0.000         0.000
  3                            0.000         0.000         0.000         0.000         0.000
  35                          86.460         0.000         0.000         0.000         0.000
  36                         431.625         0.000         0.000         0.000         0.000
  40                         159.869         0.000         0.000         0.000         0.000
  41                          59.722         0.000         0.000         0.000         0.000
  42                          68.325         0.000         0.000         0.000         0.000
  43                          13.869         0.000         0.000         0.000         0.000
  44                         410.810         0.000         0.000         0.000         0.000
  45                          34.956         0.000         0.000         0.000         0.000
  46                         156.889         0.000         0.000         0.000         0.000
  47                          37.267         0.000         0.000         0.000         0.000
  48                          84.091         0.000         0.000         0.000         0.000
  55                          54.571         0.000         0.000         0.000         0.000
  56                         159.092         0.000         0.000         0.000         0.000
  57                         130.375         0.000         0.000         0.000         0.000
  59                          29.325         0.000         0.000         0.000         0.000
  60                          51.825         0.000         0.000         0.000         0.000
  61                         366.710         0.000         0.000         0.000         0.000
  64                          39.829         0.000         0.000         0.000         0.000
  ------------------------------------------------------------------------------------------
  System                    2471.950         0.000         0.000         0.000         0.000
  
  
  ******************
  Node Depth Summary
  ******************
  
  ---------------------------------------------------------------------------------
                                 Average  Maximum  Maximum  Time of Max    Reported
                                   Depth    Depth      HGL   Occurrence   Max Depth
  Node                 Type       Meters   Meters   Meters  days hr:min      Meters
  ---------------------------------------------------------------------------------
  WS01000070           JUNCTION     0.00     0.00     0.00     0  00:00        0.00
  WS01000323           JUNCTION     0.00     0.00     0.00     0  00:00        0.00
  WS01000533           JUNCTION     0.00     0.00     6.86     0  00:00        0.00
  WS01005172           JUNCTION     0.00     0.00     0.00     0  00:00        0.00
  WS01005181           JUNCTION     0.00     0.00     0.00     0  00:00        0.00
  WS01009841           JUNCTION     0.00     0.00     0.00     0  00:00        0.00
  WS02000078           JUNCTION     0.00     0.00     0.00     0  00:00        0.00
  WS02000112           JUNCTION     0.00     0.00     0.00     0  00:00        0.00
  WS02000136           JUNCTION     0.00     0.00     0.00     0  00:00        0.00
  WS02004053           JUNCTION     0.00     0.00     0.00     0  00:00        0.00
  WS02004401           JUNCTION     2.23     2.38     8.38     0  02:38        2.38
  WS02005192           JUNCTION     0.55     0.83     8.70     0  02:30        0.83
  WS02005193           JUNCTION     0.59     1.01     8.83     0  01:36        0.87
  WS02005196           JUNCTION     0.56     0.85     8.70     0  02:30        0.85
  WS02006109           JUNCTION     1.66     1.84     8.46     0  02:38        1.84
  WS02006110           JUNCTION     1.67     1.85     8.45     0  02:38        1.85
  WS02006111           JUNCTION     1.67     1.83     8.41     0  02:35        1.83
  WS02006112           JUNCTION     2.12     2.28     8.40     0  02:38        2.28
  WS02006113           JUNCTION     1.67     1.84     8.43     0  02:35        1.84
  WS02006115           JUNCTION     2.13     2.29     8.39     0  02:38        2.29
  WS02006116           JUNCTION     2.19     2.35     8.39     0  02:38        2.35
  WS02006183           JUNCTION     0.00     0.00     0.00     0  00:00        0.00
  WS02006228           JUNCTION     1.63     1.82     8.47     0  02:38        1.82
  WS02006229           JUNCTION     1.59     1.78     8.47     0  02:38        1.78
  WS02006230           JUNCTION     1.53     1.72     8.47     0  02:37        1.72
  WS02006231           JUNCTION     1.39     1.57     8.47     0  02:38        1.57
  WS02006232           JUNCTION     1.27     1.44     8.47     0  02:38        1.44
  WS02006234           JUNCTION     1.14     1.31     8.47     0  02:35        1.31
  WS02006235           JUNCTION     1.14     1.30     8.47     0  02:35        1.30
  WS02006238           JUNCTION     1.13     1.29     8.47     0  02:30        1.29
  WS02006239           JUNCTION     1.10     1.26     8.47     0  02:30        1.25
  WS02006242           JUNCTION     1.01     1.16     8.46     0  02:30        1.16
  WS02006240           JUNCTION     1.02     1.18     8.47     0  02:30        1.17
  WS02006243           JUNCTION     0.90     1.05     8.47     0  02:30        1.04
  WS02006245           JUNCTION     0.83     0.97     8.46     0  02:30        0.97
  WS02006247           JUNCTION     0.81     0.95     8.46     0  02:30        0.95
  WS02006248           JUNCTION     0.73     0.87     8.46     0  02:30        0.87
  WS02006249           JUNCTION     0.74     0.91     8.51     0  02:30        0.91
  WS02006251           JUNCTION     0.71     1.37     9.04     0  03:45        0.96
  WS02006253           JUNCTION     0.60     0.89     8.69     0  02:30        0.89
  WS02618401           JUNCTION     0.00     0.00     0.00     0  00:00        0.00
  WSA1649              JUNCTION     0.00     0.00     0.00     0  00:00        0.00
  outfall-5            OUTFALL      0.17     0.27     7.94     0  02:30        0.27
  outfall-14           OUTFALL      0.13     0.18     7.84     0  02:38        0.18
  outfall-16           OUTFALL      0.00     0.00     8.39     0  00:00        0.00
  CC-storage           STORAGE      2.68     5.63     8.81     0  02:09        5.63
  
  
  *******************
  Node Inflow Summary
  *******************
  
  -------------------------------------------------------------------------------------------------
                                  Maximum  Maximum                  Lateral       Total        Flow
                                  Lateral    Total  Time of Max      Inflow      Inflow     Balance
                                   Inflow   Inflow   Occurrence      Volume      Volume       Error
  Node                 Type           MLD      MLD  days hr:min    10^6 ltr    10^6 ltr     Percent
  -------------------------------------------------------------------------------------------------
  WS01000070           JUNCTION      0.00     0.00     0  00:00           0           0       0.000 ltr
  WS01000323           JUNCTION      0.00     0.00     0  00:00           0           0       0.000 ltr
  WS01000533           JUNCTION      0.00     0.00     0  00:00           0           0       0.000 ltr
  WS01005172           JUNCTION      0.00     0.00     0  00:00           0           0       0.000 ltr
  WS01005181           JUNCTION      0.00     0.00     0  00:00           0           0       0.000 ltr
  WS01009841           JUNCTION      0.00     0.00     0  00:00           0           0       0.000 ltr
  WS02000078           JUNCTION      0.00     0.00     0  00:00           0           0       0.000 ltr
  WS02000112           JUNCTION      0.00     0.00     0  00:00           0           0       0.000 ltr
  WS02000136           JUNCTION      0.00     0.00     0  00:00           0           0       0.000 ltr
  WS02004053           JUNCTION      0.00     0.00     0  00:00           0           0       0.000 ltr
  WS02004401           JUNCTION      0.05    32.12     0  02:38      0.0086        2.07       1.412
  WS02005192           JUNCTION      9.95     9.95     0  02:22       0.579       0.581       0.547
  WS02005193           JUNCTION      0.09    10.30     0  02:22       0.014       0.622       1.363
  WS02005196           JUNCTION      0.12    10.16     0  02:22      0.0183       0.602       1.307
  WS02006109           JUNCTION      0.08    22.79     0  02:50      0.0129        1.58       1.536
  WS02006110           JUNCTION      0.08    22.87     0  02:50      0.0126        1.57       1.567
  WS02006111           JUNCTION      0.24    31.63     0  02:38      0.0352        2.12       0.966
  WS02006112           JUNCTION      0.18    31.78     0  02:38      0.0263        2.12       1.518
  WS02006113           JUNCTION     10.17    31.42     0  02:38       0.597        2.12       1.114
  WS02006115           JUNCTION      0.08    31.86     0  02:38      0.0129         2.1       1.781
  WS02006116           JUNCTION      0.24    32.07     0  02:38      0.0347        2.11       1.601
  WS02006183           JUNCTION      0.00     0.00     0  00:00           0           0       0.000 ltr
  WS02006228           JUNCTION     20.73    22.71     0  02:50        1.29        1.63       1.101
  WS02006229           JUNCTION      0.13    14.15     0  01:10      0.0193       0.405       4.040
  WS02006230           JUNCTION      0.07    14.68     0  01:10      0.0111       0.413       6.777
  WS02006231           JUNCTION      0.13    14.37     0  01:09      0.0197       0.416       3.561
  WS02006232           JUNCTION      7.13    14.00     0  01:09       0.416       0.719       2.165
  WS02006234           JUNCTION      0.14    13.63     0  01:09      0.0208       0.626       2.226
  WS02006235           JUNCTION      0.14    13.30     0  01:09      0.0215       0.628       1.236
  WS02006238           JUNCTION      0.15    13.23     0  01:08      0.0226       0.635       1.588
  WS02006239           JUNCTION      0.11    13.37     0  01:08      0.0167       0.642       2.404
  WS02006242           JUNCTION      0.08    14.23     0  01:07      0.0124       0.657       2.870
  WS02006240           JUNCTION      0.06    13.61     0  01:07     0.00952       0.647       2.584
  WS02006243           JUNCTION      0.17    14.57     0  01:06      0.0259       0.667       2.618
  WS02006245           JUNCTION      0.07    14.43     0  01:06      0.0109       0.658       2.043
  WS02006247           JUNCTION      8.29    15.78     0  02:21       0.545        1.16       0.984
  WS02006248           JUNCTION      0.12    60.53     0  02:30      0.0185        3.49       0.319
  WS02006249           JUNCTION      0.19    47.88     0  02:30      0.0275        2.56       0.573
  WS02006251           JUNCTION      3.29    47.71     0  02:30       0.214        2.54       0.599
  WS02006253           JUNCTION      0.11    44.40     0  02:30      0.0166        2.35       0.359
  WS02618401           JUNCTION      0.00     0.00     0  00:00           0           0       0.000 ltr
  WSA1649              JUNCTION      0.00     0.00     0  00:00           0           0       0.000 ltr
  outfall-5            OUTFALL       0.00    60.57     0  02:30           0        3.27       0.000
  outfall-14           OUTFALL       0.00    32.12     0  02:38           0        2.03       0.000
  outfall-16           OUTFALL       0.00     0.00     0  00:00           0           0       0.000 ltr
  CC-storage           STORAGE      30.75    30.75     0  02:25        1.95        1.95      -3.499
  
  
  **********************
  Node Surcharge Summary
  **********************
  
  Surcharging occurs when water rises above the top of the highest conduit.
  ---------------------------------------------------------------------
                                               Max. Height   Min. Depth
                                   Hours       Above Crown    Below Rim
  Node                 Type      Surcharged         Meters       Meters
  ---------------------------------------------------------------------
  WS01000070           JUNCTION        3.83          0.000        0.000
  WS01000323           JUNCTION        3.83          0.000        0.000
  WS01000533           JUNCTION        3.83          0.000        2.147
  WS01005172           JUNCTION        3.83          0.000        0.000
  WS01005181           JUNCTION        3.83          0.000        0.000
  WS01009841           JUNCTION        3.83          0.000        0.000
  WS02000078           JUNCTION        3.83          0.000        0.000
  WS02000112           JUNCTION        3.83          0.000        0.000
  WS02000136           JUNCTION        3.83          0.000        0.000
  WS02004053           JUNCTION        3.83          0.000        0.000
  WS02005192           JUNCTION        0.80          0.232        2.587
  WS02005193           JUNCTION        1.13          0.410        2.207
  WS02005196           JUNCTION        0.92          0.248        2.458
  WS02006109           JUNCTION        2.57          1.036        0.802
  WS02006110           JUNCTION        2.58          1.045        0.800
  WS02006111           JUNCTION        2.57          1.034        0.843
  WS02006112           JUNCTION        2.69          1.279        0.404
  WS02006113           JUNCTION        2.58          1.045        0.888
  WS02006115           JUNCTION        2.72          1.292        1.007
  WS02006116           JUNCTION        2.84          1.347        1.003
  WS02006183           JUNCTION        3.83          0.000        0.000
  WS02006228           JUNCTION        2.57          1.016        1.215
  WS02006229           JUNCTION        2.56          0.976        1.478
  WS02006231           JUNCTION        2.52          0.867        0.676
  WS02006232           JUNCTION        2.48          0.737        0.752
  WS02006234           JUNCTION        2.37          0.606        0.651
  WS02006235           JUNCTION        2.37          0.596        0.698
  WS02006238           JUNCTION        2.37          0.586        0.848
  WS02006239           JUNCTION        2.36          0.555        0.774
  WS02006242           JUNCTION        2.31          0.465        0.384
  WS02006240           JUNCTION        2.33          0.475        0.928
  WS02006243           JUNCTION        2.27          0.345        0.435
  WS02006245           JUNCTION        2.26          0.275        0.580
  WS02006247           JUNCTION        2.25          0.255        0.505
  WS02006249           JUNCTION        2.23          0.214        0.174
  WS02006251           JUNCTION        1.44          0.675        0.835
  WS02006253           JUNCTION        0.65          0.186        2.268
  WS02618401           JUNCTION        3.83          0.000        0.000
  WSA1649              JUNCTION        3.83          0.000        0.000
  
  
  *********************
  Node Flooding Summary
  *********************
  
  Flooding refers to all water that overflows a node, whether it ponds or not.
  --------------------------------------------------------------------------
                                                             Total   Maximum
                                 Maximum   Time of Max       Flood    Ponded
                        Hours       Rate    Occurrence      Volume     Depth
  Node                 Flooded       MLD   days hr:min    10^6 ltr    Meters
  --------------------------------------------------------------------------
  CC-storage              0.33     30.14      0  02:20       0.291     0.000
  
  
  **********************
  Storage Volume Summary
  **********************
  
  --------------------------------------------------------------------------------------------------
                         Average     Avg  Evap Exfil       Maximum     Max    Time of Max    Maximum
                          Volume    Pcnt  Pcnt  Pcnt        Volume    Pcnt     Occurrence    Outflow
  Storage Unit           1000 m3    Full  Loss  Loss       1000 m3    Full    days hr:min        MLD
  --------------------------------------------------------------------------------------------------
  CC-storage               0.076      48     0     0         0.159     100       0  02:09      34.56
  
  
  ***********************
  Outfall Loading Summary
  ***********************
  
  ---------------------------------------------------------------------------------------------------------------------------------
                         Flow       Avg       Max       Total         Total         Total         Total         Total         Total
                         Freq      Flow      Flow      Volume           COD         NH3-N            TN            TP            SS
  Outfall Node           Pcnt       MLD       MLD    10^6 ltr            kg            kg            kg            kg            kg
  ---------------------------------------------------------------------------------------------------------------------------------
  outfall-5             91.28     35.48     60.57       3.268       614.877         0.000         0.000         0.000         0.000
  outfall-14            91.25     21.93     32.12       2.028       427.562         0.000         0.000         0.000         0.000
  outfall-16             0.00      0.00      0.00       0.000         0.000         0.000         0.000         0.000         0.000
  ---------------------------------------------------------------------------------------------------------------------------------
  System                60.84     57.41     91.49       5.296      1042.440         0.000         0.000         0.000         0.000
  
  
  ********************
  Link Flow Summary
  ********************
  
  -----------------------------------------------------------------------------
                                 Maximum  Time of Max   Maximum    Max/    Max/
                                  |Flow|   Occurrence   |Veloc|    Full    Full
  Link                 Type          MLD  days hr:min     m/sec    Flow   Depth
  -----------------------------------------------------------------------------
  WSL2038              CONDUIT     10.05     0  02:22      0.54    0.50    1.00
  WSL2039              CONDUIT     12.32     0  03:43      0.88    0.63    1.00
  WSL2041              CONDUIT     10.21     0  02:22      0.60    0.50    1.00
  WSL2294              CONDUIT     22.79     0  02:50      0.79    0.77    1.00
  WSL2295              CONDUIT     22.87     0  02:50      0.89    1.03    1.00
  WSL2296              CONDUIT     31.63     0  02:38      0.73    0.18    1.00
  WSL2297              CONDUIT     31.78     0  02:38      0.47    0.61    1.00
  WSL2298              CONDUIT     31.42     0  02:38      1.46    1.45    1.00
  WSL2301              CONDUIT     31.86     0  02:38      0.47    0.29    1.00
  WSL2302              CONDUIT     32.07     0  02:38      0.47    0.39    1.00
  WSL2441              CONDUIT     22.71     0  02:50      0.81    0.58    1.00
  WSL2442              CONDUIT     14.02     0  01:10      1.05    0.36    1.00
  WSL2443              CONDUIT     14.61     0  01:10      1.21    0.23    1.00
  WSL2444              CONDUIT     14.24     0  01:09      1.41    0.23    1.00
  WSL2446              CONDUIT     13.65     0  01:09      1.40    0.23    1.00
  WSL2447              CONDUIT     13.49     0  01:09      1.22    0.69    1.00
  WSL2448              CONDUIT     13.16     0  01:09      1.04    0.37    1.00
  WSL2449              CONDUIT     13.08     0  01:08      0.99    0.46    1.00
  WSL2450              CONDUIT     13.26     0  01:08      1.05    0.28    1.00
  WSL2451              CONDUIT     13.55     0  01:07      1.03    0.88    1.00
  WSL2452              CONDUIT     14.15     0  01:07      1.10    0.27    1.00
  WSL2454              CONDUIT     14.40     0  01:06      1.24    0.34    1.00
  WSL2478              CONDUIT     14.36     0  01:06      1.12    0.51    1.00
  WSL2479              CONDUIT     15.78     0  02:21      1.14    0.30    1.00
  WSL2480              CONDUIT     47.88     0  02:30      1.44    2.22    1.00
  WSL2482              CONDUIT     47.71     0  02:30      1.43    1.24    1.00
  WSL2484              CONDUIT     44.43     0  02:30      1.34    0.63    1.00
  WSL2493              CONDUIT     13.59     0  01:10      0.89    0.23    1.00
  8                    CONDUIT     60.57     0  02:30      7.76    0.80    0.68
  19                   CONDUIT      0.00     0  00:00      0.00    0.00    0.00
  17                   CONDUIT     32.12     0  02:38      6.77    0.42    0.45
  CC-Pump-1            PUMP        17.28     0  02:30              1.00
  CC-Pump-2            PUMP        17.28     0  01:40              1.00
  
  
  ***************************
  Flow Classification Summary
  ***************************
  
  -------------------------------------------------------------------------------------
                      Adjusted    ---------- Fraction of Time in Flow Class ---------- 
                       /Actual         Up    Down  Sub   Sup   Up    Down  Norm  Inlet 
  Conduit               Length    Dry  Dry   Dry   Crit  Crit  Crit  Crit  Ltd   Ctrl  
  -------------------------------------------------------------------------------------
  WSL2038                 1.00   0.00  0.00  0.00  1.00  0.00  0.00  0.00  0.01  0.00
  WSL2039                 1.00   0.00  0.00  0.00  1.00  0.00  0.00  0.00  0.02  0.00
  WSL2041                 1.00   0.00  0.00  0.00  1.00  0.00  0.00  0.00  0.18  0.00
  WSL2294                 1.00   0.00  0.00  0.00  1.00  0.00  0.00  0.00  0.00  0.00
  WSL2295                 1.00   0.00  0.00  0.00  1.00  0.00  0.00  0.00  0.00  0.00
  WSL2296                 1.00   0.00  0.00  0.00  1.00  0.00  0.00  0.00  0.16  0.00
  WSL2297                 1.00   0.00  0.00  0.00  1.00  0.00  0.00  0.00  0.00  0.00
  WSL2298                 1.00   0.00  0.00  0.00  0.98  0.02  0.00  0.00  0.00  0.00
  WSL2301                 1.00   0.00  0.00  0.00  1.00  0.00  0.00  0.00  0.04  0.00
  WSL2302                 1.00   0.00  0.00  0.00  1.00  0.00  0.00  0.00  0.01  0.00
  WSL2441                 1.00   0.00  0.00  0.00  1.00  0.00  0.00  0.00  0.00  0.00
  WSL2442                 1.00   0.00  0.00  0.00  1.00  0.00  0.00  0.00  0.05  0.00
  WSL2443                 1.00   0.00  0.00  0.00  1.00  0.00  0.00  0.00  0.20  0.00
  WSL2444                 1.00   0.00  0.00  0.00  0.96  0.04  0.00  0.00  0.18  0.00
  WSL2446                 1.00   0.00  0.00  0.00  0.94  0.06  0.00  0.00  0.13  0.00
  WSL2447                 1.00   0.00  0.00  0.00  1.00  0.00  0.00  0.00  0.00  0.00
  WSL2448                 1.00   0.00  0.00  0.00  1.00  0.00  0.00  0.00  0.01  0.00
  WSL2449                 1.00   0.00  0.00  0.00  1.00  0.00  0.00  0.00  0.03  0.00
  WSL2450                 1.00   0.00  0.00  0.00  1.00  0.00  0.00  0.00  0.24  0.00
  WSL2451                 1.00   0.00  0.00  0.00  1.00  0.00  0.00  0.00  0.00  0.00
  WSL2452                 1.00   0.00  0.00  0.00  1.00  0.00  0.00  0.00  0.26  0.00
  WSL2454                 1.00   0.00  0.00  0.00  1.00  0.00  0.00  0.00  0.04  0.00
  WSL2478                 1.00   0.00  0.00  0.00  1.00  0.00  0.00  0.00  0.00  0.00
  WSL2479                 1.00   0.00  0.00  0.00  1.00  0.00  0.00  0.00  0.25  0.00
  WSL2480                 1.00   0.00  0.00  0.00  1.00  0.00  0.00  0.00  0.00  0.00
  WSL2482                 1.00   0.00  0.00  0.00  1.00  0.00  0.00  0.00  0.27  0.00
  WSL2484                 1.00   0.00  0.00  0.00  1.00  0.00  0.00  0.00  0.26  0.00
  WSL2493                 1.00   0.00  0.00  0.00  1.00  0.00  0.00  0.00  0.05  0.00
  8                       1.00   0.09  0.00  0.00  0.00  0.91  0.00  0.00  0.09  0.00
  19                      1.00   1.00  0.00  0.00  0.00  0.00  0.00  0.00  0.00  0.00
  17                      1.00   0.09  0.00  0.00  0.00  0.91  0.00  0.00  0.01  0.00
  
  
  *************************
  Conduit Surcharge Summary
  *************************
  
  ----------------------------------------------------------------------------
                                                           Hours        Hours 
                         --------- Hours Full --------   Above Full   Capacity
  Conduit                Both Ends  Upstream  Dnstream   Normal Flow   Limited
  ----------------------------------------------------------------------------
  WSL2038                     0.80      0.80      0.92      0.01         0.01
  WSL2039                     1.13      1.13      1.20      0.01         0.01
  WSL2041                     0.92      0.92      1.13      0.01         0.01
  WSL2294                     2.57      2.57      2.58      0.01         0.01
  WSL2295                     2.58      2.58      2.58      0.29         0.31
  WSL2296                     2.57      2.57      3.06      0.01         0.01
  WSL2297                     2.69      2.69      2.72      0.01         0.01
  WSL2298                     2.57      2.58      2.57      0.99         1.02
  WSL2301                     2.72      2.72      2.84      0.01         0.01
  WSL2302                     2.84      2.84      2.92      0.01         0.01
  WSL2441                     2.57      2.57      2.57      0.01         0.01
  WSL2442                     2.57      2.57      2.58      0.01         0.01
  WSL2443                     2.52      2.52      2.57      0.01         0.01
  WSL2444                     2.48      2.48      2.52      0.01         0.01
  WSL2446                     2.37      2.37      2.48      0.01         0.01
  WSL2447                     2.37      2.37      2.37      0.01         0.01
  WSL2448                     2.37      2.37      2.37      0.01         0.01
  WSL2449                     2.36      2.36      2.37      0.01         0.01
  WSL2450                     2.33      2.33      2.36      0.01         0.01
  WSL2451                     2.31      2.31      2.33      0.01         0.01
  WSL2452                     2.27      2.27      2.31      0.01         0.01
  WSL2454                     2.26      2.26      2.27      0.01         0.01
  WSL2478                     2.25      2.25      2.26      0.01         0.01
  WSL2479                     2.24      2.24      2.25      0.01         0.01
  WSL2480                     2.23      2.23      2.24      1.27         1.29
  WSL2482                     1.44      1.44      2.23      0.50         0.51
  WSL2484                     0.65      0.65      1.44      0.01         0.01
  WSL2493                     2.56      2.56      2.57      0.01         0.01
  
  
  ***************
  Pumping Summary
  ***************
  
  ---------------------------------------------------------------------------------------------------------
                                                  Min       Avg       Max     Total     Power    % Time Off
                        Percent   Number of      Flow      Flow      Flow    Volume     Usage    Pump Curve
  Pump                 Utilized   Start-Ups       MLD       MLD       MLD  10^6 ltr     Kw-hr    Low   High
  ---------------------------------------------------------------------------------------------------------
  CC-Pump-1               34.80           3      0.00     11.63     17.28     0.545      3.43    0.0    0.0
  CC-Pump-2               69.60           4      0.00     12.96     17.28     1.180      9.41    0.0    0.0
  
  
  ***************************
  Link Pollutant Load Summary
  ***************************
  
  ------------------------------------------------------------------------------------------
                                 COD         NH3-N            TN            TP            SS
  Link                            kg            kg            kg            kg            kg
  ------------------------------------------------------------------------------------------
  WSL2038                    133.622         0.000         0.000         0.000         0.000
  WSL2039                    141.390         0.000         0.000         0.000         0.000
  WSL2041                    137.687         0.000         0.000         0.000         0.000
  WSL2294                    442.890         0.000         0.000         0.000         0.000
  WSL2295                    438.155         0.000         0.000         0.000         0.000
  WSL2296                    441.011         0.000         0.000         0.000         0.000
  WSL2297                    437.697         0.000         0.000         0.000         0.000
  WSL2298                    436.848         0.000         0.000         0.000         0.000
  WSL2301                    436.212         0.000         0.000         0.000         0.000
  WSL2302                    434.136         0.000         0.000         0.000         0.000
  WSL2441                    446.315         0.000         0.000         0.000         0.000
  WSL2442                     52.998         0.000         0.000         0.000         0.000
  WSL2443                     46.389         0.000         0.000         0.000         0.000
  WSL2444                     40.907         0.000         0.000         0.000         0.000
  WSL2446                     39.055         0.000         0.000         0.000         0.000
  WSL2447                     40.330         0.000         0.000         0.000         0.000
  WSL2448                     40.655         0.000         0.000         0.000         0.000
  WSL2449                     41.349         0.000         0.000         0.000         0.000
  WSL2450                     41.664         0.000         0.000         0.000         0.000
  WSL2451                     41.859         0.000         0.000         0.000         0.000
  WSL2452                     42.563         0.000         0.000         0.000         0.000
  WSL2454                     43.147         0.000         0.000         0.000         0.000
  WSL2478                     43.888         0.000         0.000         0.000         0.000
  WSL2479                    136.777         0.000         0.000         0.000         0.000
  WSL2480                    519.737         0.000         0.000         0.000         0.000
  WSL2482                    515.023         0.000         0.000         0.000         0.000
  WSL2484                    458.002         0.000         0.000         0.000         0.000
  WSL2493                     61.745         0.000         0.000         0.000         0.000
  8                          614.877         0.000         0.000         0.000         0.000
  19                           0.000         0.000         0.000         0.000         0.000
  17                         427.562         0.000         0.000         0.000         0.000
  CC-Pump-1                  114.182         0.000         0.000         0.000         0.000
  CC-Pump-2                  203.474         0.000         0.000         0.000         0.000
  

  Analysis begun on:  Fri Aug 23 19:05:34 2019
  Analysis ended on:  Fri Aug 23 19:05:34 2019
  Total elapsed time: < 1 sec