
  EPA STORM WATER MANAGEMENT MODEL - VERSION 5.1 (Build 5.2.0.dev5)
  --------------------------------------------------------------

  
  *********************************************************
  NOTE: The summary statistics displayed in this report are
  based on results found at every computational time step,  
  not just on results from each reporting time step.
  *********************************************************
  
  ****************
  Analysis Options
  ****************
  Flow Units ............... MLD
  Process Models:
    Rainfall/Runoff ........ YES
    RDII ................... NO
    Snowmelt ............... NO
    Groundwater ............ NO
    Flow Routing ........... YES
    Ponding Allowed ........ NO
    Water Quality .......... YES
  Infiltration Method ...... GREEN_AMPT
  Flow Routing Method ...... DYNWAVE
  Surcharge Method ......... EXTRAN
  Starting Date ............ 08/28/2015 08:00:00
  Ending Date .............. 08/28/2015 11:50:00
  Antecedent Dry Days ...... 4.0
  Report Time Step ......... 00:01:00
  Wet Time Step ............ 00:01:00
  Dry Time Step ............ 00:01:00
  Routing Time Step ........ 5.00 sec
  Variable Time Step ....... YES
  Maximum Trials ........... 8
  Number of Threads ........ 1
  Head Tolerance ........... 0.001500 m
  
  
  **************************        Volume         Depth
  Runoff Quantity Continuity     hectare-m            mm
  **************************     ---------       -------
  Total Precipitation ......         0.487         7.876
  Evaporation Loss .........         0.000         0.000
  Infiltration Loss ........         0.337         5.450
  Surface Runoff ...........         0.073         1.175
  Final Storage ............         0.077         1.252
  Continuity Error (%) .....        -0.011
  
  
  **************************           COD         NH3-N            TN            TP            SS
  Runoff Quality Continuity             kg            kg            kg            kg            kg
  **************************    ----------    ----------    ----------    ----------    ----------
  Initial Buildup ..........      2504.640         0.000         0.000         0.000         0.000
  Surface Buildup ..........        20.649         0.000         0.000         0.000         0.000
  Wet Deposition ...........         0.000         0.000         0.000         0.000         0.000
  Sweeping Removal .........         0.000         0.000         0.000         0.000         0.000
  Infiltration Loss ........        18.768         0.000         0.000         0.000         0.000
  BMP Removal ..............         0.000         0.000         0.000         0.000         0.000
  Surface Runoff ...........        53.484         0.000         0.000         0.000         0.000
  Remaining Buildup ........      2452.926         0.000         0.000         0.000         0.000
  Continuity Error (%) .....         0.004         0.000         0.000         0.000         0.000
  
  
  **************************        Volume        Volume
  Flow Routing Continuity        hectare-m      10^6 ltr
  **************************     ---------     ---------
  Dry Weather Inflow .......         0.000         0.000
  Wet Weather Inflow .......         0.073         0.725
  Groundwater Inflow .......         0.000         0.000
  RDII Inflow ..............         0.000         0.000
  External Inflow ..........         0.082         0.822
  External Outflow .........         0.109         1.094
  Flooding Loss ............         0.001         0.013
  Evaporation Loss .........         0.000         0.000
  Exfiltration Loss ........         0.000         0.000
  Initial Stored Volume ....         0.000         0.000
  Final Stored Volume ......         0.046         0.461
  Continuity Error (%) .....        -1.273
  
  
  **************************           COD         NH3-N            TN            TP            SS
  Quality Routing Continuity            kg            kg            kg            kg            kg
  **************************    ----------    ----------    ----------    ----------    ----------
  Dry Weather Inflow .......         0.000         0.000         0.000         0.000         0.000
  Wet Weather Inflow .......        53.405         0.000         0.000         0.000         0.000
  Groundwater Inflow .......         0.000         0.000         0.000         0.000         0.000
  RDII Inflow ..............         0.000         0.000         0.000         0.000         0.000
  External Inflow ..........       137.264         0.000         0.000         0.000         0.000
  External Outflow .........       121.170         0.000         0.000         0.000         0.000
  Flooding Loss ............         1.188         0.000         0.000         0.000         0.000
  Exfiltration Loss ........         0.000         0.000         0.000         0.000         0.000
  Mass Reacted .............         0.000         0.000         0.000         0.000         0.000
  Initial Stored Mass ......         0.000         0.000         0.000         0.000         0.000
  Final Stored Mass ........        53.891         0.000         0.000         0.000         0.000
  Continuity Error (%) .....         7.563         0.000         0.000         0.000         0.000
  
  
  *************************
  Highest Continuity Errors
  *************************
  Node WS02006115 (7.30%)
  Node WS02006230 (7.04%)
  Node WS02006116 (6.73%)
  Node WS02006112 (6.09%)
  Node WS02004401 (6.01%)
  
  
  ***************************
  Time-Step Critical Elements
  ***************************
  Link 8 (77.29%)
  Link WSL2448 (10.50%)
  Link 17 (8.78%)
  
  
  ********************************
  Highest Flow Instability Indexes
  ********************************
  Link WSL2302 (4)
  Link WSL2301 (3)
  Link WSL2297 (3)
  Link WSL2296 (2)
  Link WSL2493 (2)
  
  
  *************************
  Routing Time Step Summary
  *************************
  Minimum Time Step           :     0.14 sec
  Average Time Step           :     1.21 sec
  Maximum Time Step           :     5.00 sec
  Percent in Steady State     :     0.00
  Average Iterations per Step :     2.14
  Percent Not Converging      :     1.02
  
  
  ***************************
  Subcatchment Runoff Summary
  ***************************
  
  ------------------------------------------------------------------------------------------------------------------------------
                            Total      Total      Total      Total     Imperv       Perv      Total       Total     Peak  Runoff
                           Precip      Runon       Evap      Infil     Runoff     Runoff     Runoff      Runoff   Runoff   Coeff
  Subcatchment                 mm         mm         mm         mm         mm         mm         mm    10^6 ltr      MLD
  ------------------------------------------------------------------------------------------------------------------------------
  1                          7.88       5.20       0.00       6.17       3.05       0.87       3.92        0.05     0.91   0.300
  2                          7.88       0.00       0.00       5.26       1.79       0.10       1.89        0.06     1.19   0.240
  3                          7.88       0.00       0.00       5.27       1.75       0.08       1.83        0.09     1.74   0.232
  35                         7.88       0.00       0.00       5.26       1.80       0.10       1.90        0.06     1.08   0.242
  36                         7.88       3.43       0.00       5.95       2.48       0.29       2.77        0.16     3.04   0.245
  40                         7.88       0.97       0.00       5.48       1.99       0.15       2.15        0.08     1.57   0.242
  41                         7.88       0.00       0.00       5.26       1.83       0.13       1.96        0.04     0.72   0.249
  42                         7.88       0.00       0.00       5.26       1.82       0.12       1.94        0.04     0.84   0.247
  43                         7.88       0.00       0.00       5.23       1.92       0.27       2.19        0.01     0.16   0.278
  44                         7.88      46.14       0.00       9.63      13.05      18.92      31.98        0.12     2.20   0.592
  45                         7.88       0.00       0.00       5.25       1.87       0.17       2.05        0.02     0.41   0.260
  46                         7.88       2.80       0.00       5.83       2.47       0.39       2.86        0.06     1.16   0.268
  47                         7.88       0.00       0.00       5.25       1.87       0.17       2.04        0.02     0.44   0.259
  48                         7.88       1.43       0.00       5.56       2.18       0.28       2.46        0.04     0.74   0.265
  55                         7.88       2.10       0.00       5.68       2.38       0.48       2.86        0.02     0.46   0.287
  56                         7.88       3.08       0.00       5.87       2.53       0.42       2.95        0.06     1.20   0.269
  57                         7.88       0.00       0.00       5.27       1.75       0.08       1.83        0.09     1.71   0.232
  59                         7.88       0.00       0.00       5.25       1.88       0.19       2.07        0.02     0.34   0.263
  60                         7.88       4.67       0.00       6.11       3.02       1.15       4.17        0.02     0.43   0.333
  61                         7.88       0.00       0.00       5.27       1.56       0.04       1.60        0.29     5.35   0.204
  64                         7.88       0.00       0.00       5.25       1.87       0.16       2.03        0.02     0.47   0.257
  
  
  ****************************
  Subcatchment Washoff Summary
  ****************************
  
  ------------------------------------------------------------------------------------------
                                 COD         NH3-N            TN            TP            SS
  Subcatchment                    kg            kg            kg            kg            kg
  ------------------------------------------------------------------------------------------
  1                            2.053         0.000         0.000         0.000         0.000
  2                            0.000         0.000         0.000         0.000         0.000
  3                            0.000         0.000         0.000         0.000         0.000
  35                           3.507         0.000         0.000         0.000         0.000
  36                          17.942         0.000         0.000         0.000         0.000
  40                           6.271         0.000         0.000         0.000         0.000
  41                           2.386         0.000         0.000         0.000         0.000
  42                           2.744         0.000         0.000         0.000         0.000
  43                           0.550         0.000         0.000         0.000         0.000
  44                          28.506         0.000         0.000         0.000         0.000
  45                           1.374         0.000         0.000         0.000         0.000
  46                           6.579         0.000         0.000         0.000         0.000
  47                           1.466         0.000         0.000         0.000         0.000
  48                           3.361         0.000         0.000         0.000         0.000
  55                           2.391         0.000         0.000         0.000         0.000
  56                           7.164         0.000         0.000         0.000         0.000
  57                           5.373         0.000         0.000         0.000         0.000
  59                           1.150         0.000         0.000         0.000         0.000
  60                           3.147         0.000         0.000         0.000         0.000
  61                          15.161         0.000         0.000         0.000         0.000
  64                           1.570         0.000         0.000         0.000         0.000
  ------------------------------------------------------------------------------------------
  System                     112.694         0.000         0.000         0.000         0.000
  
  
  ******************
  Node Depth Summary
  ******************
  
  ---------------------------------------------------------------------------------
                                 Average  Maximum  Maximum  Time of Max    Reported
                                   Depth    Depth      HGL   Occurrence   Max Depth
  Node                 Type       Meters   Meters   Meters  days hr:min      Meters
  ---------------------------------------------------------------------------------
  WS01000070           JUNCTION     0.00     0.00     0.00     0  00:00        0.00
  WS01000323           JUNCTION     0.00     0.00     0.00     0  00:00        0.00
  WS01000533           JUNCTION     0.00     0.00     6.86     0  00:00        0.00
  WS01005172           JUNCTION     0.00     0.00     0.00     0  00:00        0.00
  WS01005181           JUNCTION     0.00     0.00     0.00     0  00:00        0.00
  WS01009841           JUNCTION     0.00     0.00     0.00     0  00:00        0.00
  WS02000078           JUNCTION     0.00     0.00     0.00     0  00:00        0.00
  WS02000112           JUNCTION     0.00     0.00     0.00     0  00:00        0.00
  WS02000136           JUNCTION     0.00     0.00     0.00     0  00:00        0.00
  WS02004053           JUNCTION     0.00     0.00     0.00     0  00:00        0.00
  WS02004401           JUNCTION     2.10     2.31     8.31     0  03:33        2.31
  WS02005192           JUNCTION     0.37     0.64     8.51     0  03:30        0.63
  WS02005193           JUNCTION     0.42     0.68     8.50     0  03:30        0.68
  WS02005196           JUNCTION     0.39     0.66     8.51     0  03:30        0.65
  WS02006109           JUNCTION     1.50     1.70     8.32     0  03:33        1.70
  WS02006110           JUNCTION     1.52     1.72     8.32     0  03:33        1.72
  WS02006111           JUNCTION     1.53     1.73     8.31     0  03:33        1.73
  WS02006112           JUNCTION     1.98     2.19     8.31     0  03:33        2.19
  WS02006113           JUNCTION     1.53     1.73     8.32     0  03:33        1.73
  WS02006115           JUNCTION     2.00     2.21     8.31     0  03:33        2.21
  WS02006116           JUNCTION     2.06     2.27     8.31     0  03:33        2.27
  WS02006183           JUNCTION     0.00     0.00     0.00     0  00:00        0.00
  WS02006228           JUNCTION     1.47     1.68     8.33     0  03:31        1.68
  WS02006229           JUNCTION     1.43     1.64     8.33     0  03:31        1.64
  WS02006230           JUNCTION     1.38     1.58     8.33     0  03:31        1.58
  WS02006231           JUNCTION     1.24     1.44     8.34     0  03:33        1.44
  WS02006232           JUNCTION     1.11     1.31     8.34     0  03:30        1.31
  WS02006234           JUNCTION     1.00     1.18     8.34     0  03:30        1.18
  WS02006235           JUNCTION     0.99     1.17     8.34     0  03:30        1.17
  WS02006238           JUNCTION     0.98     1.17     8.35     0  03:30        1.16
  WS02006239           JUNCTION     0.95     1.14     8.35     0  03:30        1.14
  WS02006242           JUNCTION     0.88     1.06     8.36     0  03:30        1.05
  WS02006240           JUNCTION     0.88     1.06     8.35     0  03:30        1.06
  WS02006243           JUNCTION     0.77     0.94     8.36     0  03:30        0.94
  WS02006245           JUNCTION     0.70     0.87     8.36     0  03:30        0.87
  WS02006247           JUNCTION     0.69     0.85     8.36     0  03:30        0.85
  WS02006248           JUNCTION     0.61     0.78     8.37     0  03:30        0.77
  WS02006249           JUNCTION     0.61     0.80     8.40     0  03:30        0.80
  WS02006251           JUNCTION     0.55     0.80     8.47     0  03:30        0.79
  WS02006253           JUNCTION     0.44     0.70     8.50     0  03:30        0.70
  WS02618401           JUNCTION     0.00     0.00     0.00     0  00:00        0.00
  WSA1649              JUNCTION     0.00     0.00     0.00     0  00:00        0.00
  outfall-5            OUTFALL      0.08     0.18     7.84     0  03:30        0.17
  outfall-14           OUTFALL      0.06     0.11     7.77     0  03:33        0.11
  outfall-16           OUTFALL      0.00     0.00     8.39     0  00:00        0.00
  CC-storage           STORAGE      1.86     5.63     8.81     0  03:16        5.63
  
  
  *******************
  Node Inflow Summary
  *******************
  
  -------------------------------------------------------------------------------------------------
                                  Maximum  Maximum                  Lateral       Total        Flow
                                  Lateral    Total  Time of Max      Inflow      Inflow     Balance
                                   Inflow   Inflow   Occurrence      Volume      Volume       Error
  Node                 Type           MLD      MLD  days hr:min    10^6 ltr    10^6 ltr     Percent
  -------------------------------------------------------------------------------------------------
  WS01000070           JUNCTION      0.00     0.00     0  00:00           0           0       0.000 ltr
  WS01000323           JUNCTION      0.00     0.00     0  00:00           0           0       0.000 ltr
  WS01000533           JUNCTION      0.00     0.00     0  00:00           0           0       0.000 ltr
  WS01005172           JUNCTION      0.00     0.00     0  00:00           0           0       0.000 ltr
  WS01005181           JUNCTION      0.00     0.00     0  00:00           0           0       0.000 ltr
  WS01009841           JUNCTION      0.00     0.00     0  00:00           0           0       0.000 ltr
  WS02000078           JUNCTION      0.00     0.00     0  00:00           0           0       0.000 ltr
  WS02000112           JUNCTION      0.00     0.00     0  00:00           0           0       0.000 ltr
  WS02000136           JUNCTION      0.00     0.00     0  00:00           0           0       0.000 ltr
  WS02004053           JUNCTION      0.00     0.00     0  00:00           0           0       0.000 ltr
  WS02004401           JUNCTION      0.05    12.32     0  03:33      0.0086       0.467       6.399
  WS02005192           JUNCTION      1.80     2.95     0  03:38       0.108       0.114       2.165
  WS02005193           JUNCTION      0.09    12.40     0  03:33       0.014       0.163       4.414
  WS02005196           JUNCTION      0.12     5.45     0  03:35      0.0183       0.141       4.555
  WS02006109           JUNCTION      0.08    13.99     0  00:31      0.0129       0.445       5.709
  WS02006110           JUNCTION      0.08    12.51     0  00:31      0.0126       0.436       5.914
  WS02006111           JUNCTION      0.24    12.71     0  00:33      0.0352       0.531       3.991
  WS02006112           JUNCTION      0.18    12.70     0  00:33      0.0263       0.535       6.485
  WS02006113           JUNCTION      1.88    12.11     0  00:32       0.118       0.525       4.691
  WS02006115           JUNCTION      0.08    12.16     0  00:33      0.0129       0.515       7.878
  WS02006116           JUNCTION      0.24    12.27     0  03:33      0.0347       0.509       7.216
  WS02006183           JUNCTION      0.00     0.00     0  00:00           0           0       0.000 ltr
  WS02006228           JUNCTION      2.36    13.97     0  00:30       0.145       0.462       4.001
  WS02006229           JUNCTION      0.13    14.32     0  00:30      0.0193       0.348       4.771
  WS02006230           JUNCTION      0.07    14.11     0  00:30      0.0111       0.357       7.578
  WS02006231           JUNCTION      0.13    13.67     0  00:29      0.0197       0.366       4.206
  WS02006232           JUNCTION      1.27    13.34     0  00:29      0.0766        0.41       3.845
  WS02006234           JUNCTION      0.14    13.04     0  00:29      0.0208       0.397       3.587
  WS02006235           JUNCTION      0.14    12.71     0  00:28      0.0215       0.398       1.993
  WS02006238           JUNCTION      0.15    12.70     0  00:28      0.0226         0.4       2.533
  WS02006239           JUNCTION      0.11    12.95     0  01:31      0.0167       0.406       3.892
  WS02006242           JUNCTION      0.08    17.85     0  01:32      0.0124       0.427       4.478
  WS02006240           JUNCTION      0.06    15.60     0  01:31     0.00952       0.413       4.109
  WS02006243           JUNCTION      0.17    17.95     0  01:32      0.0259       0.438       4.054
  WS02006245           JUNCTION      0.07    17.78     0  01:31      0.0109       0.429       3.159
  WS02006247           JUNCTION      1.04    17.75     0  01:31      0.0715       0.465       2.484
  WS02006248           JUNCTION      0.12    36.51     0  03:30      0.0185       0.974       1.079
  WS02006249           JUNCTION      0.19    36.40     0  03:30      0.0275       0.831       1.726
  WS02006251           JUNCTION      0.52    36.22     0  03:30      0.0331       0.806       1.777
  WS02006253           JUNCTION      0.11    35.72     0  03:30      0.0166       0.783       0.879
  WS02618401           JUNCTION      0.00     0.00     0  00:00           0           0       0.000 ltr
  WSA1649              JUNCTION      0.00     0.00     0  00:00           0           0       0.000 ltr
  outfall-5            OUTFALL       0.00    30.44     0  03:30           0       0.666       0.000
  outfall-14           OUTFALL       0.00    12.32     0  03:33           0       0.428       0.000
  outfall-16           OUTFALL       0.00     0.00     0  00:00           0           0       0.000 ltr
  CC-storage           STORAGE       6.90     6.90     0  03:00       0.565       0.565      -9.062
  
  
  **********************
  Node Surcharge Summary
  **********************
  
  Surcharging occurs when water rises above the top of the highest conduit.
  ---------------------------------------------------------------------
                                               Max. Height   Min. Depth
                                   Hours       Above Crown    Below Rim
  Node                 Type      Surcharged         Meters       Meters
  ---------------------------------------------------------------------
  WS01000070           JUNCTION        3.83          0.000        0.000
  WS01000323           JUNCTION        3.83          0.000        0.000
  WS01000533           JUNCTION        3.83          0.000        2.147
  WS01005172           JUNCTION        3.83          0.000        0.000
  WS01005181           JUNCTION        3.83          0.000        0.000
  WS01009841           JUNCTION        3.83          0.000        0.000
  WS02000078           JUNCTION        3.83          0.000        0.000
  WS02000112           JUNCTION        3.83          0.000        0.000
  WS02000136           JUNCTION        3.83          0.000        0.000
  WS02004053           JUNCTION        3.83          0.000        0.000
  WS02005192           JUNCTION        0.07          0.039        2.780
  WS02005193           JUNCTION        0.09          0.085        2.532
  WS02005196           JUNCTION        0.08          0.056        2.650
  WS02006109           JUNCTION        2.36          0.904        0.934
  WS02006110           JUNCTION        2.37          0.920        0.925
  WS02006111           JUNCTION        2.39          0.934        0.943
  WS02006112           JUNCTION        2.81          1.192        0.491
  WS02006113           JUNCTION        2.38          0.927        1.006
  WS02006115           JUNCTION        2.85          1.210        1.089
  WS02006116           JUNCTION        2.97          1.269        1.081
  WS02006183           JUNCTION        3.83          0.000        0.000
  WS02006228           JUNCTION        2.35          0.876        1.355
  WS02006229           JUNCTION        2.34          0.838        1.616
  WS02006231           JUNCTION        2.32          0.736        0.807
  WS02006232           JUNCTION        2.29          0.609        0.880
  WS02006234           JUNCTION        2.27          0.482        0.775
  WS02006235           JUNCTION        2.27          0.475        0.819
  WS02006238           JUNCTION        2.25          0.466        0.968
  WS02006239           JUNCTION        2.19          0.439        0.890
  WS02006242           JUNCTION        2.15          0.355        0.494
  WS02006240           JUNCTION        2.16          0.362        1.041
  WS02006243           JUNCTION        2.04          0.239        0.541
  WS02006245           JUNCTION        1.98          0.172        0.683
  WS02006247           JUNCTION        1.97          0.154        0.606
  WS02006249           JUNCTION        0.36          0.097        0.291
  WS02006251           JUNCTION        0.12          0.095        1.415
  WS02006253           JUNCTION        0.01          0.002        2.452
  WS02618401           JUNCTION        3.83          0.000        0.000
  WSA1649              JUNCTION        3.83          0.000        0.000
  
  
  *********************
  Node Flooding Summary
  *********************
  
  Flooding refers to all water that overflows a node, whether it ponds or not.
  --------------------------------------------------------------------------
                                                             Total   Maximum
                                 Maximum   Time of Max       Flood    Ponded
                        Hours       Rate    Occurrence      Volume     Depth
  Node                 Flooded       MLD   days hr:min    10^6 ltr    Meters
  --------------------------------------------------------------------------
  CC-storage              0.08      4.69      0  03:16       0.013     0.000
  
  
  **********************
  Storage Volume Summary
  **********************
  
  --------------------------------------------------------------------------------------------------
                         Average     Avg  Evap Exfil       Maximum     Max    Time of Max    Maximum
                          Volume    Pcnt  Pcnt  Pcnt        Volume    Pcnt     Occurrence    Outflow
  Storage Unit           1000 m3    Full  Loss  Loss       1000 m3    Full    days hr:min        MLD
  --------------------------------------------------------------------------------------------------
  CC-storage               0.053      33     0     0         0.159     100       0  03:16      34.56
  
  
  ***********************
  Outfall Loading Summary
  ***********************
  
  ---------------------------------------------------------------------------------------------------------------------------------
                         Flow       Avg       Max       Total         Total         Total         Total         Total         Total
                         Freq      Flow      Flow      Volume           COD         NH3-N            TN            TP            SS
  Outfall Node           Pcnt       MLD       MLD    10^6 ltr            kg            kg            kg            kg            kg
  ---------------------------------------------------------------------------------------------------------------------------------
  outfall-5             86.17      9.04     30.44       0.666        60.911         0.000         0.000         0.000         0.000
  outfall-14            85.66      5.58     12.32       0.428        60.265         0.000         0.000         0.000         0.000
  outfall-16             0.00      0.00      0.00       0.000         0.000         0.000         0.000         0.000         0.000
  ---------------------------------------------------------------------------------------------------------------------------------
  System                57.28     14.62     41.65       1.094       121.176         0.000         0.000         0.000         0.000
  
  
  ********************
  Link Flow Summary
  ********************
  
  -----------------------------------------------------------------------------
                                 Maximum  Time of Max   Maximum    Max/    Max/
                                  |Flow|   Occurrence   |Veloc|    Full    Full
  Link                 Type          MLD  days hr:min     m/sec    Flow   Depth
  -----------------------------------------------------------------------------
  WSL2038              CONDUIT      4.40     0  03:33      0.37    0.22    1.00
  WSL2039              CONDUIT     16.47     0  03:33      0.87    0.85    1.00
  WSL2041              CONDUIT     12.32     0  03:33      0.67    0.60    1.00
  WSL2294              CONDUIT     12.43     0  00:31      0.89    0.42    1.00
  WSL2295              CONDUIT     11.94     0  00:32      0.94    0.54    1.00
  WSL2296              CONDUIT     12.53     0  00:33      0.78    0.07    1.00
  WSL2297              CONDUIT     12.07     0  00:33      0.36    0.23    1.00
  WSL2298              CONDUIT     12.48     0  00:33      1.55    0.57    1.00
  WSL2301              CONDUIT     12.08     0  03:33      0.29    0.11    1.00
  WSL2302              CONDUIT     12.27     0  03:33      0.23    0.15    1.00
  WSL2441              CONDUIT     13.91     0  00:31      0.96    0.36    1.00
  WSL2442              CONDUIT     14.19     0  00:30      1.15    0.36    1.00
  WSL2443              CONDUIT     14.03     0  00:30      1.28    0.22    1.00
  WSL2444              CONDUIT     13.54     0  00:29      1.44    0.21    1.00
  WSL2446              CONDUIT     13.26     0  00:29      1.43    0.23    1.00
  WSL2447              CONDUIT     12.91     0  00:29      1.21    0.66    1.00
  WSL2448              CONDUIT     12.57     0  00:28      1.02    0.35    1.00
  WSL2449              CONDUIT     12.55     0  00:28      0.97    0.44    1.00
  WSL2450              CONDUIT     12.84     0  01:31      1.04    0.27    1.00
  WSL2451              CONDUIT     15.54     0  01:31      1.02    1.01    1.00
  WSL2452              CONDUIT     17.77     0  01:32      1.09    0.34    1.00
  WSL2454              CONDUIT     17.78     0  01:32      1.28    0.42    1.00
  WSL2478              CONDUIT     17.71     0  01:31      1.18    0.62    1.00
  WSL2479              CONDUIT     17.41     0  01:31      1.19    0.33    1.00
  WSL2480              CONDUIT     36.41     0  03:30      1.19    1.68    1.00
  WSL2482              CONDUIT     36.25     0  03:30      1.12    0.94    1.00
  WSL2484              CONDUIT     36.04     0  03:30      1.33    0.51    1.00
  WSL2493              CONDUIT     13.78     0  00:30      1.00    0.23    1.00
  8                    CONDUIT     30.44     0  03:30      6.60    0.40    0.44
  19                   CONDUIT      0.00     0  00:00      0.00    0.00    0.00
  17                   CONDUIT     12.32     0  03:33      5.19    0.16    0.27
  CC-Pump-1            PUMP        17.28     0  03:30              1.00
  CC-Pump-2            PUMP        17.28     0  02:20              1.00
  
  
  ***************************
  Flow Classification Summary
  ***************************
  
  -------------------------------------------------------------------------------------
                      Adjusted    ---------- Fraction of Time in Flow Class ---------- 
                       /Actual         Up    Down  Sub   Sup   Up    Down  Norm  Inlet 
  Conduit               Length    Dry  Dry   Dry   Crit  Crit  Crit  Crit  Ltd   Ctrl  
  -------------------------------------------------------------------------------------
  WSL2038                 1.00   0.00  0.00  0.00  1.00  0.00  0.00  0.00  0.01  0.00
  WSL2039                 1.00   0.00  0.00  0.00  1.00  0.00  0.00  0.00  0.01  0.00
  WSL2041                 1.00   0.00  0.00  0.00  1.00  0.00  0.00  0.00  0.26  0.00
  WSL2294                 1.00   0.00  0.00  0.00  1.00  0.00  0.00  0.00  0.00  0.00
  WSL2295                 1.00   0.00  0.00  0.00  1.00  0.00  0.00  0.00  0.00  0.00
  WSL2296                 1.00   0.00  0.00  0.00  1.00  0.00  0.00  0.00  0.15  0.00
  WSL2297                 1.00   0.00  0.00  0.00  1.00  0.00  0.00  0.00  0.00  0.00
  WSL2298                 1.00   0.00  0.00  0.00  0.97  0.03  0.00  0.00  0.00  0.00
  WSL2301                 1.00   0.00  0.00  0.00  1.00  0.00  0.00  0.00  0.04  0.00
  WSL2302                 1.00   0.00  0.00  0.00  1.00  0.00  0.00  0.00  0.01  0.00
  WSL2441                 1.00   0.00  0.00  0.00  1.00  0.00  0.00  0.00  0.00  0.00
  WSL2442                 1.00   0.00  0.00  0.00  1.00  0.00  0.00  0.00  0.04  0.00
  WSL2443                 1.00   0.00  0.00  0.00  1.00  0.00  0.00  0.00  0.17  0.00
  WSL2444                 1.00   0.00  0.00  0.00  0.94  0.06  0.00  0.00  0.15  0.00
  WSL2446                 1.00   0.00  0.00  0.00  0.93  0.07  0.00  0.00  0.19  0.00
  WSL2447                 1.00   0.00  0.00  0.00  1.00  0.00  0.00  0.00  0.00  0.00
  WSL2448                 1.00   0.00  0.00  0.00  1.00  0.00  0.00  0.00  0.01  0.00
  WSL2449                 1.00   0.00  0.00  0.00  1.00  0.00  0.00  0.00  0.03  0.00
  WSL2450                 1.00   0.00  0.00  0.00  1.00  0.00  0.00  0.00  0.30  0.00
  WSL2451                 1.00   0.00  0.00  0.00  1.00  0.00  0.00  0.00  0.00  0.00
  WSL2452                 1.00   0.00  0.00  0.00  1.00  0.00  0.00  0.00  0.34  0.00
  WSL2454                 1.00   0.00  0.00  0.00  1.00  0.00  0.00  0.00  0.04  0.00
  WSL2478                 1.00   0.00  0.00  0.00  1.00  0.00  0.00  0.00  0.00  0.00
  WSL2479                 1.00   0.00  0.00  0.00  1.00  0.00  0.00  0.00  0.28  0.00
  WSL2480                 1.00   0.00  0.00  0.00  1.00  0.00  0.00  0.00  0.00  0.00
  WSL2482                 1.00   0.00  0.00  0.00  1.00  0.00  0.00  0.00  0.31  0.00
  WSL2484                 1.00   0.00  0.00  0.00  0.99  0.01  0.00  0.00  0.29  0.00
  WSL2493                 1.00   0.00  0.00  0.00  1.00  0.00  0.00  0.00  0.05  0.00
  8                       1.00   0.14  0.00  0.00  0.00  0.86  0.00  0.00  0.08  0.00
  19                      1.00   1.00  0.00  0.00  0.00  0.00  0.00  0.00  0.00  0.00
  17                      1.00   0.14  0.00  0.00  0.00  0.86  0.00  0.00  0.03  0.00
  
  
  *************************
  Conduit Surcharge Summary
  *************************
  
  ----------------------------------------------------------------------------
                                                           Hours        Hours 
                         --------- Hours Full --------   Above Full   Capacity
  Conduit                Both Ends  Upstream  Dnstream   Normal Flow   Limited
  ----------------------------------------------------------------------------
  WSL2038                     0.07      0.07      0.08      0.01         0.01
  WSL2039                     0.09      0.09      0.10      0.01         0.01
  WSL2041                     0.08      0.08      0.09      0.01         0.01
  WSL2294                     2.36      2.36      2.37      0.01         0.01
  WSL2295                     2.37      2.37      2.38      0.01         0.01
  WSL2296                     2.39      2.39      3.12      0.01         0.01
  WSL2297                     2.81      2.81      2.85      0.01         0.01
  WSL2298                     2.38      2.38      2.39      0.01         0.01
  WSL2301                     2.85      2.85      2.96      0.01         0.01
  WSL2302                     2.96      2.96      3.04      0.01         0.01
  WSL2441                     2.35      2.35      2.36      0.01         0.01
  WSL2442                     2.35      2.35      2.38      0.01         0.01
  WSL2443                     2.32      2.32      2.35      0.01         0.01
  WSL2444                     2.29      2.29      2.32      0.01         0.01
  WSL2446                     2.27      2.27      2.29      0.01         0.01
  WSL2447                     2.27      2.27      2.27      0.01         0.01
  WSL2448                     2.25      2.25      2.27      0.01         0.01
  WSL2449                     2.19      2.19      2.25      0.01         0.01
  WSL2450                     2.16      2.16      2.19      0.01         0.01
  WSL2451                     2.15      2.15      2.16      0.01         0.01
  WSL2452                     2.04      2.04      2.15      0.01         0.01
  WSL2454                     1.98      1.98      2.04      0.01         0.01
  WSL2478                     1.97      1.97      1.98      0.01         0.01
  WSL2479                     0.39      0.39      1.97      0.01         0.01
  WSL2480                     0.36      0.36      0.39      0.12         0.14
  WSL2482                     0.12      0.12      0.36      0.01         0.01
  WSL2484                     0.01      0.01      0.12      0.01         0.01
  WSL2493                     2.34      2.34      2.35      0.01         0.01
  
  
  ***************
  Pumping Summary
  ***************
  
  ---------------------------------------------------------------------------------------------------------
                                                  Min       Avg       Max     Total     Power    % Time Off
                        Percent   Number of      Flow      Flow      Flow    Volume     Usage    Pump Curve
  Pump                 Utilized   Start-Ups       MLD       MLD       MLD  10^6 ltr     Kw-hr    Low   High
  ---------------------------------------------------------------------------------------------------------
  CC-Pump-1               21.74           2      0.00      6.73     17.28     0.169      1.57    0.0    0.0
  CC-Pump-2               43.48           4      0.00      7.82     17.28     0.440      4.45    0.0    0.0
  
  
  ***************************
  Link Pollutant Load Summary
  ***************************
  
  ------------------------------------------------------------------------------------------
                                 COD         NH3-N            TN            TP            SS
  Link                            kg            kg            kg            kg            kg
  ------------------------------------------------------------------------------------------
  WSL2038                      9.733         0.000         0.000         0.000         0.000
  WSL2039                     17.528         0.000         0.000         0.000         0.000
  WSL2041                     13.727         0.000         0.000         0.000         0.000
  WSL2294                     67.721         0.000         0.000         0.000         0.000
  WSL2295                     67.047         0.000         0.000         0.000         0.000
  WSL2296                     72.701         0.000         0.000         0.000         0.000
  WSL2297                     71.352         0.000         0.000         0.000         0.000
  WSL2298                     68.594         0.000         0.000         0.000         0.000
  WSL2301                     68.549         0.000         0.000         0.000         0.000
  WSL2302                     67.073         0.000         0.000         0.000         0.000
  WSL2441                     68.332         0.000         0.000         0.000         0.000
  WSL2442                     40.909         0.000         0.000         0.000         0.000
  WSL2443                     41.762         0.000         0.000         0.000         0.000
  WSL2444                     41.496         0.000         0.000         0.000         0.000
  WSL2446                     44.431         0.000         0.000         0.000         0.000
  WSL2447                     48.708         0.000         0.000         0.000         0.000
  WSL2448                     49.996         0.000         0.000         0.000         0.000
  WSL2449                     51.567         0.000         0.000         0.000         0.000
  WSL2450                     54.155         0.000         0.000         0.000         0.000
  WSL2451                     56.319         0.000         0.000         0.000         0.000
  WSL2452                     57.585         0.000         0.000         0.000         0.000
  WSL2454                     55.781         0.000         0.000         0.000         0.000
  WSL2478                     53.348         0.000         0.000         0.000         0.000
  WSL2479                     51.333         0.000         0.000         0.000         0.000
  WSL2480                     78.585         0.000         0.000         0.000         0.000
  WSL2482                     73.000         0.000         0.000         0.000         0.000
  WSL2484                     66.948         0.000         0.000         0.000         0.000
  WSL2493                     41.359         0.000         0.000         0.000         0.000
  8                           60.911         0.000         0.000         0.000         0.000
  19                           0.000         0.000         0.000         0.000         0.000
  17                          60.265         0.000         0.000         0.000         0.000
  CC-Pump-1                   11.840         0.000         0.000         0.000         0.000
  CC-Pump-2                   36.865         0.000         0.000         0.000         0.000
  

  Analysis begun on:  Fri Aug 23 19:05:50 2019
  Analysis ended on:  Fri Aug 23 19:05:50 2019
  Total elapsed time: < 1 sec