
  EPA STORM WATER MANAGEMENT MODEL - VERSION 5.1 (Build 5.2.0.dev5)
  --------------------------------------------------------------

  
  *********************************************************
  NOTE: The summary statistics displayed in this report are
  based on results found at every computational time step,  
  not just on results from each reporting time step.
  *********************************************************
  
  ****************
  Analysis Options
  ****************
  Flow Units ............... MLD
  Process Models:
    Rainfall/Runoff ........ YES
    RDII ................... NO
    Snowmelt ............... NO
    Groundwater ............ NO
    Flow Routing ........... YES
    Ponding Allowed ........ NO
    Water Quality .......... YES
  Infiltration Method ...... GREEN_AMPT
  Flow Routing Method ...... DYNWAVE
  Surcharge Method ......... EXTRAN
  Starting Date ............ 08/28/2015 08:00:00
  Ending Date .............. 08/28/2015 11:50:00
  Antecedent Dry Days ...... 4.0
  Report Time Step ......... 00:01:00
  Wet Time Step ............ 00:01:00
  Dry Time Step ............ 00:01:00
  Routing Time Step ........ 5.00 sec
  Variable Time Step ....... YES
  Maximum Trials ........... 8
  Number of Threads ........ 1
  Head Tolerance ........... 0.001500 m
  
  
  **************************        Volume         Depth
  Runoff Quantity Continuity     hectare-m            mm
  **************************     ---------       -------
  Total Precipitation ......         0.487         7.876
  Evaporation Loss .........         0.000         0.000
  Infiltration Loss ........         0.337         5.450
  Surface Runoff ...........         0.073         1.175
  Final Storage ............         0.077         1.252
  Continuity Error (%) .....        -0.011
  
  
  **************************           COD         NH3-N            TN            TP            SS
  Runoff Quality Continuity             kg            kg            kg            kg            kg
  **************************    ----------    ----------    ----------    ----------    ----------
  Initial Buildup ..........      2504.640         0.000         0.000         0.000         0.000
  Surface Buildup ..........        20.649         0.000         0.000         0.000         0.000
  Wet Deposition ...........         0.000         0.000         0.000         0.000         0.000
  Sweeping Removal .........         0.000         0.000         0.000         0.000         0.000
  Infiltration Loss ........        18.768         0.000         0.000         0.000         0.000
  BMP Removal ..............         0.000         0.000         0.000         0.000         0.000
  Surface Runoff ...........        53.484         0.000         0.000         0.000         0.000
  Remaining Buildup ........      2452.926         0.000         0.000         0.000         0.000
  Continuity Error (%) .....         0.004         0.000         0.000         0.000         0.000
  
  
  **************************        Volume        Volume
  Flow Routing Continuity        hectare-m      10^6 ltr
  **************************     ---------     ---------
  Dry Weather Inflow .......         0.000         0.000
  Wet Weather Inflow .......         0.073         0.725
  Groundwater Inflow .......         0.000         0.000
  RDII Inflow ..............         0.000         0.000
  External Inflow ..........         0.082         0.822
  External Outflow .........         0.048         0.477
  Flooding Loss ............         0.041         0.406
  Evaporation Loss .........         0.000         0.000
  Exfiltration Loss ........         0.000         0.000
  Initial Stored Volume ....         0.000         0.000
  Final Stored Volume ......         0.062         0.617
  Continuity Error (%) .....         3.036
  
  
  **************************           COD         NH3-N            TN            TP            SS
  Quality Routing Continuity            kg            kg            kg            kg            kg
  **************************    ----------    ----------    ----------    ----------    ----------
  Dry Weather Inflow .......         0.000         0.000         0.000         0.000         0.000
  Wet Weather Inflow .......        53.387         0.000         0.000         0.000         0.000
  Groundwater Inflow .......         0.000         0.000         0.000         0.000         0.000
  RDII Inflow ..............         0.000         0.000         0.000         0.000         0.000
  External Inflow ..........       137.266         0.000         0.000         0.000         0.000
  External Outflow .........        59.129         0.000         0.000         0.000         0.000
  Flooding Loss ............        46.022         0.000         0.000         0.000         0.000
  Exfiltration Loss ........         0.000         0.000         0.000         0.000         0.000
  Mass Reacted .............         0.000         0.000         0.000         0.000         0.000
  Initial Stored Mass ......         0.000         0.000         0.000         0.000         0.000
  Final Stored Mass ........        77.798         0.000         0.000         0.000         0.000
  Continuity Error (%) .....         4.041         0.000         0.000         0.000         0.000
  
  
  *************************
  Highest Continuity Errors
  *************************
  Node WS02006115 (14.07%)
  Node WS02006116 (13.20%)
  Node WS02004401 (11.78%)
  Node WS02006112 (11.38%)
  Node WS02006230 (10.67%)
  
  
  ***************************
  Time-Step Critical Elements
  ***************************
  Link 8 (74.25%)
  Link WSL2448 (20.53%)
  
  
  ********************************
  Highest Flow Instability Indexes
  ********************************
  Link WSL2302 (5)
  Link WSL2301 (5)
  Link WSL2297 (4)
  Link WSL2296 (4)
  Link WSL2298 (3)
  
  
  *************************
  Routing Time Step Summary
  *************************
  Minimum Time Step           :     0.59 sec
  Average Time Step           :     1.70 sec
  Maximum Time Step           :     5.00 sec
  Percent in Steady State     :    -0.00
  Average Iterations per Step :     2.05
  Percent Not Converging      :     0.15
  
  
  ***************************
  Subcatchment Runoff Summary
  ***************************
  
  ------------------------------------------------------------------------------------------------------------------------------
                            Total      Total      Total      Total     Imperv       Perv      Total       Total     Peak  Runoff
                           Precip      Runon       Evap      Infil     Runoff     Runoff     Runoff      Runoff   Runoff   Coeff
  Subcatchment                 mm         mm         mm         mm         mm         mm         mm    10^6 ltr      MLD
  ------------------------------------------------------------------------------------------------------------------------------
  1                          7.88       5.20       0.00       6.17       3.05       0.87       3.92        0.05     0.91   0.300
  2                          7.88       0.00       0.00       5.26       1.79       0.10       1.89        0.06     1.19   0.240
  3                          7.88       0.00       0.00       5.27       1.75       0.08       1.83        0.09     1.74   0.232
  35                         7.88       0.00       0.00       5.26       1.80       0.10       1.90        0.06     1.08   0.242
  36                         7.88       3.43       0.00       5.95       2.48       0.29       2.77        0.16     3.04   0.245
  40                         7.88       0.97       0.00       5.48       1.99       0.15       2.15        0.08     1.57   0.242
  41                         7.88       0.00       0.00       5.26       1.83       0.13       1.96        0.04     0.72   0.249
  42                         7.88       0.00       0.00       5.26       1.82       0.12       1.94        0.04     0.84   0.247
  43                         7.88       0.00       0.00       5.23       1.92       0.27       2.19        0.01     0.16   0.278
  44                         7.88      46.14       0.00       9.63      13.05      18.92      31.98        0.12     2.20   0.592
  45                         7.88       0.00       0.00       5.25       1.87       0.17       2.05        0.02     0.41   0.260
  46                         7.88       2.80       0.00       5.83       2.47       0.39       2.86        0.06     1.16   0.268
  47                         7.88       0.00       0.00       5.25       1.87       0.17       2.04        0.02     0.44   0.259
  48                         7.88       1.43       0.00       5.56       2.18       0.28       2.46        0.04     0.74   0.265
  55                         7.88       2.10       0.00       5.68       2.38       0.48       2.86        0.02     0.46   0.287
  56                         7.88       3.08       0.00       5.87       2.53       0.42       2.95        0.06     1.20   0.269
  57                         7.88       0.00       0.00       5.27       1.75       0.08       1.83        0.09     1.71   0.232
  59                         7.88       0.00       0.00       5.25       1.88       0.19       2.07        0.02     0.34   0.263
  60                         7.88       4.67       0.00       6.11       3.02       1.15       4.17        0.02     0.43   0.333
  61                         7.88       0.00       0.00       5.27       1.56       0.04       1.60        0.29     5.35   0.204
  64                         7.88       0.00       0.00       5.25       1.87       0.16       2.03        0.02     0.47   0.257
  
  
  ****************************
  Subcatchment Washoff Summary
  ****************************
  
  ------------------------------------------------------------------------------------------
                                 COD         NH3-N            TN            TP            SS
  Subcatchment                    kg            kg            kg            kg            kg
  ------------------------------------------------------------------------------------------
  1                            2.053         0.000         0.000         0.000         0.000
  2                            0.000         0.000         0.000         0.000         0.000
  3                            0.000         0.000         0.000         0.000         0.000
  35                           3.507         0.000         0.000         0.000         0.000
  36                          17.942         0.000         0.000         0.000         0.000
  40                           6.271         0.000         0.000         0.000         0.000
  41                           2.386         0.000         0.000         0.000         0.000
  42                           2.744         0.000         0.000         0.000         0.000
  43                           0.550         0.000         0.000         0.000         0.000
  44                          28.506         0.000         0.000         0.000         0.000
  45                           1.374         0.000         0.000         0.000         0.000
  46                           6.579         0.000         0.000         0.000         0.000
  47                           1.466         0.000         0.000         0.000         0.000
  48                           3.361         0.000         0.000         0.000         0.000
  55                           2.391         0.000         0.000         0.000         0.000
  56                           7.164         0.000         0.000         0.000         0.000
  57                           5.373         0.000         0.000         0.000         0.000
  59                           1.150         0.000         0.000         0.000         0.000
  60                           3.147         0.000         0.000         0.000         0.000
  61                          15.161         0.000         0.000         0.000         0.000
  64                           1.570         0.000         0.000         0.000         0.000
  ------------------------------------------------------------------------------------------
  System                     112.694         0.000         0.000         0.000         0.000
  
  
  ******************
  Node Depth Summary
  ******************
  
  ---------------------------------------------------------------------------------
                                 Average  Maximum  Maximum  Time of Max    Reported
                                   Depth    Depth      HGL   Occurrence   Max Depth
  Node                 Type       Meters   Meters   Meters  days hr:min      Meters
  ---------------------------------------------------------------------------------
  WS01000070           JUNCTION     0.00     0.00     0.00     0  00:00        0.00
  WS01000323           JUNCTION     0.00     0.00     0.00     0  00:00        0.00
  WS01000533           JUNCTION     0.00     0.00     6.86     0  00:00        0.00
  WS01005172           JUNCTION     0.00     0.00     0.00     0  00:00        0.00
  WS01005181           JUNCTION     0.00     0.00     0.00     0  00:00        0.00
  WS01009841           JUNCTION     0.00     0.00     0.00     0  00:00        0.00
  WS02000078           JUNCTION     0.00     0.00     0.00     0  00:00        0.00
  WS02000112           JUNCTION     0.00     0.00     0.00     0  00:00        0.00
  WS02000136           JUNCTION     0.00     0.00     0.00     0  00:00        0.00
  WS02004053           JUNCTION     0.00     0.00     0.00     0  00:00        0.00
  WS02004401           JUNCTION     1.97     2.27     8.27     0  03:00        2.27
  WS02005192           JUNCTION     0.31     0.42     8.29     0  02:28        0.42
  WS02005193           JUNCTION     0.35     0.46     8.28     0  02:29        0.46
  WS02005196           JUNCTION     0.32     0.44     8.29     0  02:28        0.43
  WS02006109           JUNCTION     1.37     1.65     8.27     0  03:00        1.65
  WS02006110           JUNCTION     1.39     1.67     8.27     0  03:00        1.67
  WS02006111           JUNCTION     1.41     1.69     8.27     0  03:00        1.69
  WS02006112           JUNCTION     1.85     2.15     8.27     0  03:00        2.15
  WS02006113           JUNCTION     1.40     1.68     8.27     0  03:00        1.68
  WS02006115           JUNCTION     1.87     2.17     8.27     0  03:00        2.17
  WS02006116           JUNCTION     1.93     2.23     8.27     0  03:00        2.23
  WS02006183           JUNCTION     0.00     0.00     0.00     0  00:00        0.00
  WS02006228           JUNCTION     1.35     1.62     8.27     0  03:00        1.62
  WS02006229           JUNCTION     1.31     1.58     8.27     0  03:00        1.58
  WS02006230           JUNCTION     1.25     1.52     8.27     0  03:00        1.52
  WS02006231           JUNCTION     1.11     1.37     8.27     0  03:00        1.37
  WS02006232           JUNCTION     1.00     1.24     8.27     0  03:00        1.24
  WS02006234           JUNCTION     0.89     1.11     8.27     0  03:00        1.11
  WS02006235           JUNCTION     0.89     1.10     8.27     0  03:00        1.10
  WS02006238           JUNCTION     0.88     1.09     8.27     0  03:00        1.09
  WS02006239           JUNCTION     0.85     1.06     8.27     0  03:00        1.06
  WS02006242           JUNCTION     0.78     0.97     8.27     0  03:00        0.97
  WS02006240           JUNCTION     0.78     0.98     8.27     0  03:00        0.98
  WS02006243           JUNCTION     0.67     0.85     8.27     0  02:29        0.85
  WS02006245           JUNCTION     0.61     0.78     8.27     0  02:30        0.78
  WS02006247           JUNCTION     0.60     0.76     8.27     0  02:30        0.76
  WS02006248           JUNCTION     0.53     0.68     8.27     0  02:29        0.68
  WS02006249           JUNCTION     0.52     0.68     8.28     0  02:29        0.67
  WS02006251           JUNCTION     0.46     0.61     8.28     0  02:29        0.60
  WS02006253           JUNCTION     0.36     0.48     8.28     0  02:29        0.48
  WS02618401           JUNCTION     0.00     0.00     0.00     0  00:00        0.00
  WSA1649              JUNCTION     0.00     0.00     0.00     0  00:00        0.00
  outfall-5            OUTFALL      0.05     0.08     7.75     0  02:30        0.08
  outfall-14           OUTFALL      0.04     0.07     7.73     0  03:00        0.07
  outfall-16           OUTFALL      0.00     0.00     8.39     0  00:00        0.00
  CC-storage           STORAGE      5.13     5.63     8.81     0  01:45        5.63
  
  
  *******************
  Node Inflow Summary
  *******************
  
  -------------------------------------------------------------------------------------------------
                                  Maximum  Maximum                  Lateral       Total        Flow
                                  Lateral    Total  Time of Max      Inflow      Inflow     Balance
                                   Inflow   Inflow   Occurrence      Volume      Volume       Error
  Node                 Type           MLD      MLD  days hr:min    10^6 ltr    10^6 ltr     Percent
  -------------------------------------------------------------------------------------------------
  WS01000070           JUNCTION      0.00     0.00     0  00:00           0           0       0.000 ltr
  WS01000323           JUNCTION      0.00     0.00     0  00:00           0           0       0.000 ltr
  WS01000533           JUNCTION      0.00     0.00     0  00:00           0           0       0.000 ltr
  WS01005172           JUNCTION      0.00     0.00     0  00:00           0           0       0.000 ltr
  WS01005181           JUNCTION      0.00     0.00     0  00:00           0           0       0.000 ltr
  WS01009841           JUNCTION      0.00     0.00     0  00:00           0           0       0.000 ltr
  WS02000078           JUNCTION      0.00     0.00     0  00:00           0           0       0.000 ltr
  WS02000112           JUNCTION      0.00     0.00     0  00:00           0           0       0.000 ltr
  WS02000136           JUNCTION      0.00     0.00     0  00:00           0           0       0.000 ltr
  WS02004053           JUNCTION      0.00     0.00     0  00:00           0           0       0.000 ltr
  WS02004401           JUNCTION      0.05     4.93     0  03:00      0.0086       0.235      13.351
  WS02005192           JUNCTION      1.80     1.80     0  03:01       0.108       0.108       2.057
  WS02005193           JUNCTION      0.09     2.03     0  02:31       0.014       0.136       4.937
  WS02005196           JUNCTION      0.12     1.91     0  03:01      0.0183       0.125       4.829
  WS02006109           JUNCTION      0.08     2.56     0  00:42      0.0129       0.262      10.375
  WS02006110           JUNCTION      0.08     2.64     0  00:42      0.0126        0.25      11.038
  WS02006111           JUNCTION      0.24     4.43     0  03:00      0.0352       0.293       7.784
  WS02006112           JUNCTION      0.18     4.59     0  03:00      0.0263       0.293      12.835
  WS02006113           JUNCTION      1.88     4.24     0  03:00       0.118       0.314       8.309
  WS02006115           JUNCTION      0.08     4.67     0  03:00      0.0129       0.274      16.378
  WS02006116           JUNCTION      0.24     4.88     0  03:00      0.0347       0.272      15.206
  WS02006183           JUNCTION      0.00     0.00     0  00:00           0           0       0.000 ltr
  WS02006228           JUNCTION      2.36     3.04     0  02:21       0.145       0.307       6.457
  WS02006229           JUNCTION      0.13     3.19     0  02:25      0.0193       0.224       8.004
  WS02006230           JUNCTION      0.07     3.26     0  02:25      0.0111       0.233      11.940
  WS02006231           JUNCTION      0.13     3.06     0  01:32      0.0197       0.239       6.943
  WS02006232           JUNCTION      1.27     3.79     0  02:27      0.0766       0.296       5.568
  WS02006234           JUNCTION      0.14     3.92     0  02:27      0.0208       0.291       5.070
  WS02006235           JUNCTION      0.14     4.05     0  02:27      0.0215       0.285       3.089
  WS02006238           JUNCTION      0.15     4.19     0  02:27      0.0226       0.283       3.892
  WS02006239           JUNCTION      0.11     4.34     0  02:27      0.0167        0.28       5.848
  WS02006242           JUNCTION      0.08     4.46     0  02:27      0.0124       0.276       7.188
  WS02006240           JUNCTION      0.06     4.41     0  02:27     0.00952       0.275       6.387
  WS02006243           JUNCTION      0.17     4.60     0  02:27      0.0259        0.28       6.559
  WS02006245           JUNCTION      0.07     4.73     0  02:27      0.0109       0.266       5.246
  WS02006247           JUNCTION      1.04     5.46     0  02:27      0.0715       0.304       3.871
  WS02006248           JUNCTION      0.12     7.17     0  02:29      0.0185       0.392       2.673
  WS02006249           JUNCTION      0.19     4.18     0  02:26      0.0275       0.212       6.974
  WS02006251           JUNCTION      0.52     3.62     0  02:27      0.0331       0.186       7.744
  WS02006253           JUNCTION      0.11     2.30     0  02:30      0.0166       0.151       4.506
  WS02618401           JUNCTION      0.00     0.00     0  00:00           0           0       0.000 ltr
  WSA1649              JUNCTION      0.00     0.00     0  00:00           0           0       0.000 ltr
  outfall-5            OUTFALL       0.00     7.18     0  02:30           0       0.276       0.000
  outfall-14           OUTFALL       0.00     4.92     0  03:00           0       0.201       0.000
  outfall-16           OUTFALL       0.00     0.00     0  00:00           0           0       0.000 ltr
  CC-storage           STORAGE       6.90     6.90     0  03:00       0.565       0.565       0.023
  
  
  **********************
  Node Surcharge Summary
  **********************
  
  Surcharging occurs when water rises above the top of the highest conduit.
  ---------------------------------------------------------------------
                                               Max. Height   Min. Depth
                                   Hours       Above Crown    Below Rim
  Node                 Type      Surcharged         Meters       Meters
  ---------------------------------------------------------------------
  WS01000070           JUNCTION        3.83          0.000        0.000
  WS01000323           JUNCTION        3.83          0.000        0.000
  WS01000533           JUNCTION        3.83          0.000        2.147
  WS01005172           JUNCTION        3.83          0.000        0.000
  WS01005181           JUNCTION        3.83          0.000        0.000
  WS01009841           JUNCTION        3.83          0.000        0.000
  WS02000078           JUNCTION        3.83          0.000        0.000
  WS02000112           JUNCTION        3.83          0.000        0.000
  WS02000136           JUNCTION        3.83          0.000        0.000
  WS02004053           JUNCTION        3.83          0.000        0.000
  WS02006109           JUNCTION        2.04          0.853        0.985
  WS02006110           JUNCTION        2.06          0.873        0.972
  WS02006111           JUNCTION        2.08          0.892        0.985
  WS02006112           JUNCTION        2.38          1.151        0.532
  WS02006113           JUNCTION        2.06          0.883        1.050
  WS02006115           JUNCTION        2.41          1.170        1.129
  WS02006116           JUNCTION        2.50          1.229        1.121
  WS02006183           JUNCTION        3.83          0.000        0.000
  WS02006228           JUNCTION        2.02          0.822        1.409
  WS02006229           JUNCTION        1.98          0.782        1.672
  WS02006231           JUNCTION        1.88          0.671        0.872
  WS02006232           JUNCTION        1.77          0.541        0.948
  WS02006234           JUNCTION        1.64          0.411        0.846
  WS02006235           JUNCTION        1.64          0.401        0.893
  WS02006238           JUNCTION        1.63          0.391        1.043
  WS02006239           JUNCTION        1.60          0.361        0.968
  WS02006242           JUNCTION        1.53          0.270        0.579
  WS02006240           JUNCTION        1.53          0.280        1.123
  WS02006243           JUNCTION        1.44          0.151        0.629
  WS02006245           JUNCTION        1.40          0.082        0.773
  WS02006247           JUNCTION        1.39          0.063        0.697
  WS02618401           JUNCTION        3.83          0.000        0.000
  WSA1649              JUNCTION        3.83          0.000        0.000
  
  
  *********************
  Node Flooding Summary
  *********************
  
  Flooding refers to all water that overflows a node, whether it ponds or not.
  --------------------------------------------------------------------------
                                                             Total   Maximum
                                 Maximum   Time of Max       Flood    Ponded
                        Hours       Rate    Occurrence      Volume     Depth
  Node                 Flooded       MLD   days hr:min    10^6 ltr    Meters
  --------------------------------------------------------------------------
  CC-storage              2.07      6.90      0  03:00       0.406     0.000
  
  
  **********************
  Storage Volume Summary
  **********************
  
  --------------------------------------------------------------------------------------------------
                         Average     Avg  Evap Exfil       Maximum     Max    Time of Max    Maximum
                          Volume    Pcnt  Pcnt  Pcnt        Volume    Pcnt     Occurrence    Outflow
  Storage Unit           1000 m3    Full  Loss  Loss       1000 m3    Full    days hr:min        MLD
  --------------------------------------------------------------------------------------------------
  CC-storage               0.145      91     0     0         0.159     100       0  01:45       0.00
  
  
  ***********************
  Outfall Loading Summary
  ***********************
  
  ---------------------------------------------------------------------------------------------------------------------------------
                         Flow       Avg       Max       Total         Total         Total         Total         Total         Total
                         Freq      Flow      Flow      Volume           COD         NH3-N            TN            TP            SS
  Outfall Node           Pcnt       MLD       MLD    10^6 ltr            kg            kg            kg            kg            kg
  ---------------------------------------------------------------------------------------------------------------------------------
  outfall-5             74.68      4.84      7.18       0.276        30.793         0.000         0.000         0.000         0.000
  outfall-14            74.84      3.51      4.92       0.201        28.341         0.000         0.000         0.000         0.000
  outfall-16             0.00      0.00      0.00       0.000         0.000         0.000         0.000         0.000         0.000
  ---------------------------------------------------------------------------------------------------------------------------------
  System                49.84      8.35     11.29       0.477        59.134         0.000         0.000         0.000         0.000
  
  
  ********************
  Link Flow Summary
  ********************
  
  -----------------------------------------------------------------------------
                                 Maximum  Time of Max   Maximum    Max/    Max/
                                  |Flow|   Occurrence   |Veloc|    Full    Full
  Link                 Type          MLD  days hr:min     m/sec    Flow   Depth
  -----------------------------------------------------------------------------
  WSL2038              CONDUIT      1.80     0  03:01      0.42    0.09    0.71
  WSL2039              CONDUIT      2.20     0  02:30      0.65    0.11    0.79
  WSL2041              CONDUIT      1.95     0  02:31      0.47    0.10    0.75
  WSL2294              CONDUIT      2.56     0  00:42      0.43    0.09    1.00
  WSL2295              CONDUIT      2.66     0  00:41      0.50    0.12    1.00
  WSL2296              CONDUIT      4.44     0  03:00      0.63    0.03    1.00
  WSL2297              CONDUIT      4.59     0  03:00      0.34    0.09    1.00
  WSL2298              CONDUIT      4.24     0  03:00      0.87    0.20    1.00
  WSL2301              CONDUIT      4.68     0  03:00      0.29    0.04    1.00
  WSL2302              CONDUIT      4.88     0  03:00      0.23    0.06    1.00
  WSL2441              CONDUIT      2.48     0  00:42      0.44    0.06    1.00
  WSL2442              CONDUIT      3.20     0  02:25      0.63    0.08    1.00
  WSL2443              CONDUIT      2.86     0  02:11      0.73    0.04    1.00
  WSL2444              CONDUIT      2.97     0  02:11      0.86    0.05    1.00
  WSL2446              CONDUIT      3.79     0  02:27      0.83    0.07    1.00
  WSL2447              CONDUIT      3.92     0  02:27      0.66    0.20    1.00
  WSL2448              CONDUIT      4.06     0  02:27      0.53    0.11    1.00
  WSL2449              CONDUIT      4.24     0  02:27      0.51    0.15    1.00
  WSL2450              CONDUIT      4.35     0  02:27      0.59    0.09    1.00
  WSL2451              CONDUIT      4.39     0  02:27      0.56    0.29    1.00
  WSL2452              CONDUIT      4.45     0  02:27      0.57    0.09    1.00
  WSL2454              CONDUIT      4.66     0  02:27      0.70    0.11    1.00
  WSL2478              CONDUIT      4.80     0  02:27      0.60    0.17    1.00
  WSL2479              CONDUIT      5.34     0  02:27      0.55    0.10    0.99
  WSL2480              CONDUIT      4.02     0  02:26      0.57    0.19    0.97
  WSL2482              CONDUIT      3.28     0  02:27      0.49    0.09    0.92
  WSL2484              CONDUIT      2.41     0  02:30      0.60    0.03    0.78
  WSL2493              CONDUIT      3.08     0  02:25      0.51    0.05    1.00
  8                    CONDUIT      7.18     0  02:30      4.39    0.09    0.21
  19                   CONDUIT      0.00     0  00:00      0.00    0.00    0.00
  17                   CONDUIT      4.92     0  03:00      3.98    0.06    0.17
  CC-Pump-1            PUMP         0.00     0  00:00              0.00
  CC-Pump-2            PUMP         0.00     0  00:00              0.00
  
  
  ***************************
  Flow Classification Summary
  ***************************
  
  -------------------------------------------------------------------------------------
                      Adjusted    ---------- Fraction of Time in Flow Class ---------- 
                       /Actual         Up    Down  Sub   Sup   Up    Down  Norm  Inlet 
  Conduit               Length    Dry  Dry   Dry   Crit  Crit  Crit  Crit  Ltd   Ctrl  
  -------------------------------------------------------------------------------------
  WSL2038                 1.00   0.00  0.00  0.00  1.00  0.00  0.00  0.00  0.01  0.00
  WSL2039                 1.00   0.00  0.00  0.00  1.00  0.00  0.00  0.00  0.00  0.00
  WSL2041                 1.00   0.00  0.00  0.00  1.00  0.00  0.00  0.00  0.39  0.00
  WSL2294                 1.00   0.00  0.00  0.00  1.00  0.00  0.00  0.00  0.00  0.00
  WSL2295                 1.00   0.00  0.00  0.00  1.00  0.00  0.00  0.00  0.00  0.00
  WSL2296                 1.00   0.00  0.00  0.00  1.00  0.00  0.00  0.00  0.17  0.00
  WSL2297                 1.00   0.00  0.00  0.00  1.00  0.00  0.00  0.00  0.00  0.00
  WSL2298                 1.00   0.00  0.00  0.00  0.97  0.03  0.00  0.00  0.00  0.00
  WSL2301                 1.00   0.00  0.00  0.00  1.00  0.00  0.00  0.00  0.04  0.00
  WSL2302                 1.00   0.00  0.00  0.00  1.00  0.00  0.00  0.00  0.01  0.00
  WSL2441                 1.00   0.00  0.00  0.00  1.00  0.00  0.00  0.00  0.00  0.00
  WSL2442                 1.00   0.00  0.00  0.00  1.00  0.00  0.00  0.00  0.17  0.00
  WSL2443                 1.00   0.00  0.00  0.00  1.00  0.00  0.00  0.00  0.31  0.00
  WSL2444                 1.00   0.00  0.00  0.00  0.90  0.10  0.00  0.00  0.26  0.00
  WSL2446                 1.00   0.00  0.00  0.00  0.88  0.12  0.00  0.00  0.04  0.00
  WSL2447                 1.00   0.00  0.00  0.00  1.00  0.00  0.00  0.00  0.00  0.00
  WSL2448                 1.00   0.00  0.00  0.00  1.00  0.00  0.00  0.00  0.00  0.00
  WSL2449                 1.00   0.00  0.00  0.00  1.00  0.00  0.00  0.00  0.03  0.00
  WSL2450                 1.00   0.00  0.00  0.00  1.00  0.00  0.00  0.00  0.46  0.00
  WSL2451                 1.00   0.00  0.00  0.00  1.00  0.00  0.00  0.00  0.00  0.00
  WSL2452                 1.00   0.00  0.00  0.00  1.00  0.00  0.00  0.00  0.48  0.00
  WSL2454                 1.00   0.00  0.00  0.00  1.00  0.00  0.00  0.00  0.03  0.00
  WSL2478                 1.00   0.00  0.00  0.00  1.00  0.00  0.00  0.00  0.00  0.00
  WSL2479                 1.00   0.00  0.00  0.00  1.00  0.00  0.00  0.00  0.53  0.00
  WSL2480                 1.00   0.00  0.00  0.00  1.00  0.00  0.00  0.00  0.00  0.00
  WSL2482                 1.00   0.00  0.00  0.00  1.00  0.00  0.00  0.00  0.55  0.00
  WSL2484                 1.00   0.00  0.00  0.00  1.00  0.00  0.00  0.00  0.56  0.00
  WSL2493                 1.00   0.00  0.00  0.00  1.00  0.00  0.00  0.00  0.05  0.00
  8                       1.00   0.25  0.00  0.00  0.00  0.75  0.00  0.00  0.00  0.00
  19                      1.00   1.00  0.00  0.00  0.00  0.00  0.00  0.00  0.00  0.00
  17                      1.00   0.25  0.00  0.00  0.00  0.75  0.00  0.00  0.00  0.00
  
  
  *************************
  Conduit Surcharge Summary
  *************************
  
  ----------------------------------------------------------------------------
                                                           Hours        Hours 
                         --------- Hours Full --------   Above Full   Capacity
  Conduit                Both Ends  Upstream  Dnstream   Normal Flow   Limited
  ----------------------------------------------------------------------------
  WSL2294                     2.04      2.04      2.06      0.01         0.01
  WSL2295                     2.06      2.06      2.06      0.01         0.01
  WSL2296                     2.08      2.08      2.74      0.01         0.01
  WSL2297                     2.38      2.38      2.41      0.01         0.01
  WSL2298                     2.06      2.06      2.08      0.01         0.01
  WSL2301                     2.41      2.41      2.50      0.01         0.01
  WSL2302                     2.50      2.50      2.59      0.01         0.01
  WSL2441                     2.02      2.02      2.04      0.01         0.01
  WSL2442                     2.02      2.02      2.07      0.01         0.01
  WSL2443                     1.88      1.88      2.02      0.01         0.01
  WSL2444                     1.77      1.77      1.88      0.01         0.01
  WSL2446                     1.64      1.64      1.77      0.01         0.01
  WSL2447                     1.64      1.64      1.64      0.01         0.01
  WSL2448                     1.63      1.63      1.64      0.01         0.01
  WSL2449                     1.60      1.60      1.63      0.01         0.01
  WSL2450                     1.53      1.53      1.60      0.01         0.01
  WSL2451                     1.53      1.53      1.53      0.01         0.01
  WSL2452                     1.44      1.44      1.53      0.01         0.01
  WSL2454                     1.40      1.40      1.44      0.01         0.01
  WSL2478                     1.39      1.39      1.40      0.01         0.01
  WSL2479                     0.01      0.01      1.39      0.01         0.01
  WSL2493                     1.98      1.98      2.02      0.01         0.01
  
  
  ***************
  Pumping Summary
  ***************
  
  ---------------------------------------------------------------------------------------------------------
                                                  Min       Avg       Max     Total     Power    % Time Off
                        Percent   Number of      Flow      Flow      Flow    Volume     Usage    Pump Curve
  Pump                 Utilized   Start-Ups       MLD       MLD       MLD  10^6 ltr     Kw-hr    Low   High
  ---------------------------------------------------------------------------------------------------------
  CC-Pump-1                0.00           0      0.00      0.00      0.00     0.000      0.00    0.0    0.0
  CC-Pump-2                0.00           0      0.00      0.00      0.00     0.000      0.00    0.0    0.0
  
  
  ***************************
  Link Pollutant Load Summary
  ***************************
  
  ------------------------------------------------------------------------------------------
                                 COD         NH3-N            TN            TP            SS
  Link                            kg            kg            kg            kg            kg
  ------------------------------------------------------------------------------------------
  WSL2038                      8.130         0.000         0.000         0.000         0.000
  WSL2039                     13.080         0.000         0.000         0.000         0.000
  WSL2041                     10.837         0.000         0.000         0.000         0.000
  WSL2294                     39.866         0.000         0.000         0.000         0.000
  WSL2295                     33.739         0.000         0.000         0.000         0.000
  WSL2296                     34.673         0.000         0.000         0.000         0.000
  WSL2297                     34.146         0.000         0.000         0.000         0.000
  WSL2298                     31.787         0.000         0.000         0.000         0.000
  WSL2301                     33.158         0.000         0.000         0.000         0.000
  WSL2302                     33.801         0.000         0.000         0.000         0.000
  WSL2441                     44.180         0.000         0.000         0.000         0.000
  WSL2442                     37.567         0.000         0.000         0.000         0.000
  WSL2443                     36.554         0.000         0.000         0.000         0.000
  WSL2444                     36.064         0.000         0.000         0.000         0.000
  WSL2446                     35.896         0.000         0.000         0.000         0.000
  WSL2447                     35.482         0.000         0.000         0.000         0.000
  WSL2448                     35.059         0.000         0.000         0.000         0.000
  WSL2449                     34.767         0.000         0.000         0.000         0.000
  WSL2450                     34.555         0.000         0.000         0.000         0.000
  WSL2451                     34.300         0.000         0.000         0.000         0.000
  WSL2452                     34.189         0.000         0.000         0.000         0.000
  WSL2454                     32.992         0.000         0.000         0.000         0.000
  WSL2478                     32.153         0.000         0.000         0.000         0.000
  WSL2479                     32.682         0.000         0.000         0.000         0.000
  WSL2480                     23.885         0.000         0.000         0.000         0.000
  WSL2482                     19.616         0.000         0.000         0.000         0.000
  WSL2484                     15.895         0.000         0.000         0.000         0.000
  WSL2493                     37.155         0.000         0.000         0.000         0.000
  8                           30.793         0.000         0.000         0.000         0.000
  19                           0.000         0.000         0.000         0.000         0.000
  17                          28.341         0.000         0.000         0.000         0.000
  CC-Pump-1                    0.000         0.000         0.000         0.000         0.000
  CC-Pump-2                    0.000         0.000         0.000         0.000         0.000
  

  Analysis begun on:  Fri Aug 23 19:05:51 2019
  Analysis ended on:  Fri Aug 23 19:05:51 2019
  Total elapsed time: < 1 sec