
  EPA STORM WATER MANAGEMENT MODEL - VERSION 5.1 (Build 5.2.0.dev5)
  --------------------------------------------------------------

  
  *********************************************************
  NOTE: The summary statistics displayed in this report are
  based on results found at every computational time step,  
  not just on results from each reporting time step.
  *********************************************************
  
  ****************
  Analysis Options
  ****************
  Flow Units ............... MLD
  Process Models:
    Rainfall/Runoff ........ YES
    RDII ................... NO
    Snowmelt ............... NO
    Groundwater ............ NO
    Flow Routing ........... YES
    Ponding Allowed ........ NO
    Water Quality .......... YES
  Infiltration Method ...... GREEN_AMPT
  Flow Routing Method ...... DYNWAVE
  Surcharge Method ......... EXTRAN
  Starting Date ............ 08/28/2015 08:00:00
  Ending Date .............. 08/28/2015 11:50:00
  Antecedent Dry Days ...... 4.0
  Report Time Step ......... 00:01:00
  Wet Time Step ............ 00:01:00
  Dry Time Step ............ 00:01:00
  Routing Time Step ........ 5.00 sec
  Variable Time Step ....... YES
  Maximum Trials ........... 8
  Number of Threads ........ 1
  Head Tolerance ........... 0.001500 m
  
  
  **************************        Volume         Depth
  Runoff Quantity Continuity     hectare-m            mm
  **************************     ---------       -------
  Total Precipitation ......         1.972        31.879
  Evaporation Loss .........         0.000         0.000
  Infiltration Loss ........         0.639        10.338
  Surface Runoff ...........         0.586         9.471
  Final Storage ............         0.747        12.071
  Continuity Error (%) .....        -0.004
  
  
  **************************           COD         NH3-N            TN            TP            SS
  Runoff Quality Continuity             kg            kg            kg            kg            kg
  **************************    ----------    ----------    ----------    ----------    ----------
  Initial Buildup ..........      2504.640         0.000         0.000         0.000         0.000
  Surface Buildup ..........        19.335         0.000         0.000         0.000         0.000
  Wet Deposition ...........         0.000         0.000         0.000         0.000         0.000
  Sweeping Removal .........         0.000         0.000         0.000         0.000         0.000
  Infiltration Loss ........       185.212         0.000         0.000         0.000         0.000
  BMP Removal ..............         0.000         0.000         0.000         0.000         0.000
  Surface Runoff ...........      1181.386         0.000         0.000         0.000         0.000
  Remaining Buildup ........      1156.957         0.000         0.000         0.000         0.000
  Continuity Error (%) .....         0.017         0.000         0.000         0.000         0.000
  
  
  **************************        Volume        Volume
  Flow Routing Continuity        hectare-m      10^6 ltr
  **************************     ---------     ---------
  Dry Weather Inflow .......         0.000         0.000
  Wet Weather Inflow .......         0.584         5.845
  Groundwater Inflow .......         0.000         0.000
  RDII Inflow ..............         0.000         0.000
  External Inflow ..........         0.082         0.822
  External Outflow .........         0.403         4.033
  Flooding Loss ............         0.197         1.973
  Evaporation Loss .........         0.000         0.000
  Exfiltration Loss ........         0.000         0.000
  Initial Stored Volume ....         0.000         0.000
  Final Stored Volume ......         0.062         0.623
  Continuity Error (%) .....         0.557
  
  
  **************************           COD         NH3-N            TN            TP            SS
  Quality Routing Continuity            kg            kg            kg            kg            kg
  **************************    ----------    ----------    ----------    ----------    ----------
  Dry Weather Inflow .......         0.000         0.000         0.000         0.000         0.000
  Wet Weather Inflow .......      1179.833         0.000         0.000         0.000         0.000
  Groundwater Inflow .......         0.000         0.000         0.000         0.000         0.000
  RDII Inflow ..............         0.000         0.000         0.000         0.000         0.000
  External Inflow ..........       137.263         0.000         0.000         0.000         0.000
  External Outflow .........       771.358         0.000         0.000         0.000         0.000
  Flooding Loss ............       453.337         0.000         0.000         0.000         0.000
  Exfiltration Loss ........         0.000         0.000         0.000         0.000         0.000
  Mass Reacted .............         0.000         0.000         0.000         0.000         0.000
  Initial Stored Mass ......         0.000         0.000         0.000         0.000         0.000
  Final Stored Mass ........        84.683         0.000         0.000         0.000         0.000
  Continuity Error (%) .....         0.586         0.000         0.000         0.000         0.000
  
  
  *************************
  Highest Continuity Errors
  *************************
  Node WS02006230 (5.39%)
  Node WS02006229 (3.37%)
  Node WS02006231 (3.05%)
  Node WS02006242 (1.98%)
  Node WS02006115 (1.97%)
  
  
  ***************************
  Time-Step Critical Elements
  ***************************
  Link 8 (90.05%)
  Link WSL2448 (7.86%)
  
  
  ********************************
  Highest Flow Instability Indexes
  ********************************
  Link WSL2302 (3)
  Link WSL2301 (2)
  Link WSL2297 (2)
  Link WSL2296 (2)
  Link WSL2298 (1)
  
  
  *************************
  Routing Time Step Summary
  *************************
  Minimum Time Step           :     0.43 sec
  Average Time Step           :     0.89 sec
  Maximum Time Step           :     5.00 sec
  Percent in Steady State     :    -0.00
  Average Iterations per Step :     2.09
  Percent Not Converging      :     0.63
  
  
  ***************************
  Subcatchment Runoff Summary
  ***************************
  
  ------------------------------------------------------------------------------------------------------------------------------
                            Total      Total      Total      Total     Imperv       Perv      Total       Total     Peak  Runoff
                           Precip      Runon       Evap      Infil     Runoff     Runoff     Runoff      Runoff   Runoff   Coeff
  Subcatchment                 mm         mm         mm         mm         mm         mm         mm    10^6 ltr      MLD
  ------------------------------------------------------------------------------------------------------------------------------
  1                         31.88      52.10       0.00      12.51      20.15      29.40      49.55        0.60     9.38   0.590
  2                         31.88       0.00       0.00       9.69       7.75       5.63      13.38        0.45     7.83   0.420
  3                         31.88       0.00       0.00       9.81       7.69       4.85      12.54        0.64    11.11   0.393
  35                        31.88       0.00       0.00       9.66       7.76       5.84      13.60        0.41     7.16   0.427
  36                        31.88      28.21       0.00      12.19      14.10      12.03      26.13        1.54    22.62   0.435
  40                        31.88       7.21       0.00      10.42       9.39       7.35      16.73        0.65    10.61   0.428
  41                        31.88       0.00       0.00       9.52       7.81       6.77      14.58        0.28     4.92   0.457
  42                        31.88       0.00       0.00       9.57       7.79       6.43      14.22        0.32     5.64   0.446
  43                        31.88       0.00       0.00       8.81       7.91      10.59      18.50        0.07     1.22   0.580
  44                        31.88     432.22       0.00      19.45     114.08     278.05     392.12        1.45    23.46   0.845
  45                        31.88       0.00       0.00       9.28       7.86       8.18      16.04        0.17     2.90   0.503
  46                        31.88      23.70       0.00      11.42      13.34      14.90      28.24        0.60     8.98   0.508
  47                        31.88       0.00       0.00       9.31       7.86       8.01      15.86        0.18     3.09   0.498
  48                        31.88      11.12       0.00      10.39      10.44      11.31      21.75        0.34     5.45   0.506
  55                        31.88      16.68       0.00      10.46      11.85      15.96      27.81        0.23     3.64   0.573
  56                        31.88      25.87       0.00      11.56      13.86      15.74      29.61        0.63     9.46   0.513
  57                        31.88       0.00       0.00       9.80       7.69       4.89      12.58        0.63    10.92   0.394
  59                        31.88       0.00       0.00       9.20       7.87       8.65      16.52        0.14     2.45   0.518
  60                        31.88      36.10       0.00      11.27      16.62      27.85      44.47        0.23     3.67   0.654
  61                        31.88       0.00       0.00      10.06       7.39       2.94      10.33        1.86    32.26   0.324
  64                        31.88       0.00       0.00       9.34       7.85       7.83      15.68        0.19     3.30   0.492
  
  
  ****************************
  Subcatchment Washoff Summary
  ****************************
  
  ------------------------------------------------------------------------------------------
                                 COD         NH3-N            TN            TP            SS
  Subcatchment                    kg            kg            kg            kg            kg
  ------------------------------------------------------------------------------------------
  1                          106.539         0.000         0.000         0.000         0.000
  2                            0.000         0.000         0.000         0.000         0.000
  3                            0.000         0.000         0.000         0.000         0.000
  35                          97.247         0.000         0.000         0.000         0.000
  36                         464.652         0.000         0.000         0.000         0.000
  40                         176.811         0.000         0.000         0.000         0.000
  41                          66.542         0.000         0.000         0.000         0.000
  42                          76.400         0.000         0.000         0.000         0.000
  43                          14.817         0.000         0.000         0.000         0.000
  44                         445.880         0.000         0.000         0.000         0.000
  45                          38.357         0.000         0.000         0.000         0.000
  46                         167.011         0.000         0.000         0.000         0.000
  47                          40.970         0.000         0.000         0.000         0.000
  48                          90.227         0.000         0.000         0.000         0.000
  55                          57.731         0.000         0.000         0.000         0.000
  56                         169.730         0.000         0.000         0.000         0.000
  57                         147.952         0.000         0.000         0.000         0.000
  59                          32.011         0.000         0.000         0.000         0.000
  60                          55.707         0.000         0.000         0.000         0.000
  61                         423.285         0.000         0.000         0.000         0.000
  64                          43.873         0.000         0.000         0.000         0.000
  ------------------------------------------------------------------------------------------
  System                    2715.742         0.000         0.000         0.000         0.000
  
  
  ******************
  Node Depth Summary
  ******************
  
  ---------------------------------------------------------------------------------
                                 Average  Maximum  Maximum  Time of Max    Reported
                                   Depth    Depth      HGL   Occurrence   Max Depth
  Node                 Type       Meters   Meters   Meters  days hr:min      Meters
  ---------------------------------------------------------------------------------
  WS01000070           JUNCTION     0.00     0.00     0.00     0  00:00        0.00
  WS01000323           JUNCTION     0.00     0.00     0.00     0  00:00        0.00
  WS01000533           JUNCTION     0.00     0.00     6.86     0  00:00        0.00
  WS01005172           JUNCTION     0.00     0.00     0.00     0  00:00        0.00
  WS01005181           JUNCTION     0.00     0.00     0.00     0  00:00        0.00
  WS01009841           JUNCTION     0.00     0.00     0.00     0  00:00        0.00
  WS02000078           JUNCTION     0.00     0.00     0.00     0  00:00        0.00
  WS02000112           JUNCTION     0.00     0.00     0.00     0  00:00        0.00
  WS02000136           JUNCTION     0.00     0.00     0.00     0  00:00        0.00
  WS02004053           JUNCTION     0.00     0.00     0.00     0  00:00        0.00
  WS02004401           JUNCTION     2.21     2.37     8.37     0  02:37        2.37
  WS02005192           JUNCTION     0.46     0.55     8.42     0  01:48        0.54
  WS02005193           JUNCTION     0.50     0.58     8.40     0  02:27        0.58
  WS02005196           JUNCTION     0.47     0.56     8.41     0  02:27        0.56
  WS02006109           JUNCTION     1.64     1.81     8.43     0  02:39        1.81
  WS02006110           JUNCTION     1.65     1.82     8.42     0  02:38        1.82
  WS02006111           JUNCTION     1.65     1.82     8.40     0  02:37        1.82
  WS02006112           JUNCTION     2.10     2.27     8.39     0  02:37        2.27
  WS02006113           JUNCTION     1.66     1.82     8.41     0  02:36        1.82
  WS02006115           JUNCTION     2.11     2.28     8.38     0  02:37        2.28
  WS02006116           JUNCTION     2.17     2.34     8.38     0  02:37        2.34
  WS02006183           JUNCTION     0.00     0.00     0.00     0  00:00        0.00
  WS02006228           JUNCTION     1.61     1.79     8.44     0  02:40        1.79
  WS02006229           JUNCTION     1.57     1.75     8.44     0  02:40        1.75
  WS02006230           JUNCTION     1.51     1.68     8.43     0  02:40        1.68
  WS02006231           JUNCTION     1.37     1.53     8.43     0  02:40        1.53
  WS02006232           JUNCTION     1.25     1.40     8.43     0  02:40        1.40
  WS02006234           JUNCTION     1.12     1.27     8.43     0  02:39        1.27
  WS02006235           JUNCTION     1.11     1.25     8.42     0  02:39        1.25
  WS02006238           JUNCTION     1.10     1.24     8.42     0  02:39        1.24
  WS02006239           JUNCTION     1.07     1.21     8.42     0  02:39        1.21
  WS02006242           JUNCTION     0.99     1.11     8.41     0  02:39        1.11
  WS02006240           JUNCTION     0.99     1.12     8.41     0  02:39        1.12
  WS02006243           JUNCTION     0.87     0.98     8.40     0  02:39        0.98
  WS02006245           JUNCTION     0.80     0.91     8.40     0  02:39        0.91
  WS02006247           JUNCTION     0.78     0.88     8.39     0  02:39        0.88
  WS02006248           JUNCTION     0.70     0.79     8.38     0  02:35        0.79
  WS02006249           JUNCTION     0.69     0.78     8.38     0  02:33        0.78
  WS02006251           JUNCTION     0.63     0.72     8.39     0  02:29        0.72
  WS02006253           JUNCTION     0.51     0.60     8.40     0  02:29        0.60
  WS02618401           JUNCTION     0.00     0.00     0.00     0  00:00        0.00
  WSA1649              JUNCTION     0.00     0.00     0.00     0  00:00        0.00
  outfall-5            OUTFALL      0.15     0.19     7.86     0  02:35        0.19
  outfall-14           OUTFALL      0.13     0.17     7.83     0  02:37        0.17
  outfall-16           OUTFALL      0.00     0.00     8.39     0  00:00        0.00
  CC-storage           STORAGE      5.38     5.63     8.81     0  01:29        5.63
  
  
  *******************
  Node Inflow Summary
  *******************
  
  -------------------------------------------------------------------------------------------------
                                  Maximum  Maximum                  Lateral       Total        Flow
                                  Lateral    Total  Time of Max      Inflow      Inflow     Balance
                                   Inflow   Inflow   Occurrence      Volume      Volume       Error
  Node                 Type           MLD      MLD  days hr:min    10^6 ltr    10^6 ltr     Percent
  -------------------------------------------------------------------------------------------------
  WS01000070           JUNCTION      0.00     0.00     0  00:00           0           0       0.000 ltr
  WS01000323           JUNCTION      0.00     0.00     0  00:00           0           0       0.000 ltr
  WS01000533           JUNCTION      0.00     0.00     0  00:00           0           0       0.000 ltr
  WS01005172           JUNCTION      0.00     0.00     0  00:00           0           0       0.000 ltr
  WS01005181           JUNCTION      0.00     0.00     0  00:00           0           0       0.000 ltr
  WS01009841           JUNCTION      0.00     0.00     0  00:00           0           0       0.000 ltr
  WS02000078           JUNCTION      0.00     0.00     0  00:00           0           0       0.000 ltr
  WS02000112           JUNCTION      0.00     0.00     0  00:00           0           0       0.000 ltr
  WS02000136           JUNCTION      0.00     0.00     0  00:00           0           0       0.000 ltr
  WS02004053           JUNCTION      0.00     0.00     0  00:00           0           0       0.000 ltr
  WS02004401           JUNCTION      0.05    29.01     0  02:37      0.0086        1.86       1.557
  WS02005192           JUNCTION     11.02    11.02     0  02:22       0.645       0.645       0.414
  WS02005193           JUNCTION      0.09    11.20     0  02:22       0.014       0.671       1.128
  WS02005196           JUNCTION      0.12    11.13     0  02:22      0.0183        0.66       1.051
  WS02006109           JUNCTION      0.08    18.98     0  03:00      0.0129        1.33       1.845
  WS02006110           JUNCTION      0.08    19.04     0  03:00      0.0126        1.32       1.885
  WS02006111           JUNCTION      0.24    28.51     0  02:37      0.0352         1.9       1.087
  WS02006112           JUNCTION      0.18    28.67     0  02:37      0.0263        1.91       1.719
  WS02006113           JUNCTION     11.26    28.30     0  02:37       0.664        1.93       1.234
  WS02006115           JUNCTION      0.08    28.75     0  02:37      0.0129        1.89       2.014
  WS02006116           JUNCTION      0.24    28.96     0  02:37      0.0347        1.89       1.833
  WS02006183           JUNCTION      0.00     0.00     0  00:00           0           0       0.000 ltr
  WS02006228           JUNCTION     23.61    23.61     0  03:01        1.47        1.63       1.110
  WS02006229           JUNCTION      0.13     6.95     0  01:47      0.0193       0.469       3.486
  WS02006230           JUNCTION      0.07     7.06     0  01:46      0.0111       0.481       5.695
  WS02006231           JUNCTION      0.13     6.27     0  01:38      0.0197       0.488       3.143
  WS02006232           JUNCTION      7.91    11.25     0  02:43       0.463       0.927       1.662
  WS02006234           JUNCTION      0.14    11.38     0  02:43      0.0208       0.916       1.519
  WS02006235           JUNCTION      0.14    11.51     0  02:43      0.0215       0.914       0.847
  WS02006238           JUNCTION      0.15    11.64     0  02:42      0.0226       0.917       1.088
  WS02006239           JUNCTION      0.11    11.74     0  02:43      0.0167       0.918       1.679
  WS02006242           JUNCTION      0.08    11.88     0  02:42      0.0124       0.922       2.021
  WS02006240           JUNCTION      0.06    11.80     0  02:42     0.00952       0.916       1.814
  WS02006243           JUNCTION      0.17    12.03     0  02:42      0.0259       0.934       1.862
  WS02006245           JUNCTION      0.07    12.10     0  02:42      0.0109       0.927       1.441
  WS02006247           JUNCTION      9.52    21.37     0  03:00       0.622        1.51       0.753
  WS02006248           JUNCTION      0.12    34.73     0  02:35      0.0185        2.33       0.465
  WS02006249           JUNCTION      0.19    15.11     0  02:22      0.0275       0.952       1.544
  WS02006251           JUNCTION      3.70    14.95     0  02:23        0.24       0.928       1.607
  WS02006253           JUNCTION      0.11    11.29     0  02:22      0.0166       0.688       1.116
  WS02618401           JUNCTION      0.00     0.00     0  00:00           0           0       0.000 ltr
  WSA1649              JUNCTION      0.00     0.00     0  00:00           0           0       0.000 ltr
  outfall-5            OUTFALL       0.00    34.73     0  02:35           0        2.21       0.000
  outfall-14           OUTFALL       0.00    29.01     0  02:37           0        1.83       0.000
  outfall-16           OUTFALL       0.00     0.00     0  00:00           0           0       0.000 ltr
  CC-storage           STORAGE      33.88    33.88     0  02:24        2.13        2.13       0.005
  
  
  **********************
  Node Surcharge Summary
  **********************
  
  Surcharging occurs when water rises above the top of the highest conduit.
  ---------------------------------------------------------------------
                                               Max. Height   Min. Depth
                                   Hours       Above Crown    Below Rim
  Node                 Type      Surcharged         Meters       Meters
  ---------------------------------------------------------------------
  WS01000070           JUNCTION        3.83          0.000        0.000
  WS01000323           JUNCTION        3.83          0.000        0.000
  WS01000533           JUNCTION        3.83          0.000        2.147
  WS01005172           JUNCTION        3.83          0.000        0.000
  WS01005181           JUNCTION        3.83          0.000        0.000
  WS01009841           JUNCTION        3.83          0.000        0.000
  WS02000078           JUNCTION        3.83          0.000        0.000
  WS02000112           JUNCTION        3.83          0.000        0.000
  WS02000136           JUNCTION        3.83          0.000        0.000
  WS02004053           JUNCTION        3.83          0.000        0.000
  WS02006109           JUNCTION        2.30          1.009        0.829
  WS02006110           JUNCTION        2.32          1.021        0.824
  WS02006111           JUNCTION        2.32          1.018        0.859
  WS02006112           JUNCTION        2.47          1.266        0.417
  WS02006113           JUNCTION        2.32          1.025        0.908
  WS02006115           JUNCTION        2.49          1.280        1.019
  WS02006116           JUNCTION        2.56          1.335        1.015
  WS02006183           JUNCTION        3.83          0.000        0.000
  WS02006228           JUNCTION        2.30          0.986        1.245
  WS02006229           JUNCTION        2.28          0.945        1.509
  WS02006231           JUNCTION        2.23          0.834        0.709
  WS02006232           JUNCTION        2.19          0.703        0.786
  WS02006234           JUNCTION        2.14          0.568        0.689
  WS02006235           JUNCTION        2.14          0.555        0.739
  WS02006238           JUNCTION        2.14          0.544        0.890
  WS02006239           JUNCTION        2.13          0.509        0.820
  WS02006242           JUNCTION        2.10          0.408        0.441
  WS02006240           JUNCTION        2.10          0.424        0.979
  WS02006243           JUNCTION        2.07          0.282        0.498
  WS02006245           JUNCTION        2.05          0.206        0.649
  WS02006247           JUNCTION        2.05          0.183        0.577
  WS02006249           JUNCTION        2.01          0.085        0.303
  WS02006251           JUNCTION        0.88          0.024        1.486
  WS02618401           JUNCTION        3.83          0.000        0.000
  WSA1649              JUNCTION        3.83          0.000        0.000
  
  
  *********************
  Node Flooding Summary
  *********************
  
  Flooding refers to all water that overflows a node, whether it ponds or not.
  --------------------------------------------------------------------------
                                                             Total   Maximum
                                 Maximum   Time of Max       Flood    Ponded
                        Hours       Rate    Occurrence      Volume     Depth
  Node                 Flooded       MLD   days hr:min    10^6 ltr    Meters
  --------------------------------------------------------------------------
  CC-storage              2.34     33.88      0  02:24       1.973     0.000
  
  
  **********************
  Storage Volume Summary
  **********************
  
  --------------------------------------------------------------------------------------------------
                         Average     Avg  Evap Exfil       Maximum     Max    Time of Max    Maximum
                          Volume    Pcnt  Pcnt  Pcnt        Volume    Pcnt     Occurrence    Outflow
  Storage Unit           1000 m3    Full  Loss  Loss       1000 m3    Full    days hr:min        MLD
  --------------------------------------------------------------------------------------------------
  CC-storage               0.152      96     0     0         0.159     100       0  01:29       0.00
  
  
  ***********************
  Outfall Loading Summary
  ***********************
  
  ---------------------------------------------------------------------------------------------------------------------------------
                         Flow       Avg       Max       Total         Total         Total         Total         Total         Total
                         Freq      Flow      Flow      Volume           COD         NH3-N            TN            TP            SS
  Outfall Node           Pcnt       MLD       MLD    10^6 ltr            kg            kg            kg            kg            kg
  ---------------------------------------------------------------------------------------------------------------------------------
  outfall-5             90.38     26.36     34.73       2.205       410.344         0.000         0.000         0.000         0.000
  outfall-14            90.50     21.85     29.01       1.828       361.034         0.000         0.000         0.000         0.000
  outfall-16             0.00      0.00      0.00       0.000         0.000         0.000         0.000         0.000         0.000
  ---------------------------------------------------------------------------------------------------------------------------------
  System                60.30     48.21     63.73       4.033       771.378         0.000         0.000         0.000         0.000
  
  
  ********************
  Link Flow Summary
  ********************
  
  -----------------------------------------------------------------------------
                                 Maximum  Time of Max   Maximum    Max/    Max/
                                  |Flow|   Occurrence   |Veloc|    Full    Full
  Link                 Type          MLD  days hr:min     m/sec    Flow   Depth
  -----------------------------------------------------------------------------
  WSL2038              CONDUIT     11.02     0  02:22      0.65    0.55    0.92
  WSL2039              CONDUIT     11.19     0  02:22      0.97    0.58    0.98
  WSL2041              CONDUIT     11.12     0  02:22      0.73    0.55    0.95
  WSL2294              CONDUIT     18.97     0  03:00      0.44    0.64    1.00
  WSL2295              CONDUIT     19.04     0  03:00      0.50    0.86    1.00
  WSL2296              CONDUIT     28.51     0  02:37      0.66    0.16    1.00
  WSL2297              CONDUIT     28.67     0  02:37      0.42    0.55    1.00
  WSL2298              CONDUIT     28.30     0  02:37      0.87    1.30    1.00
  WSL2301              CONDUIT     28.75     0  02:37      0.42    0.26    1.00
  WSL2302              CONDUIT     28.96     0  02:37      0.43    0.36    1.00
  WSL2441              CONDUIT     18.90     0  03:00      0.44    0.48    1.00
  WSL2442              CONDUIT      6.99     0  01:46      0.63    0.18    1.00
  WSL2443              CONDUIT      6.14     0  01:38      0.73    0.10    1.00
  WSL2444              CONDUIT      6.28     0  01:38      0.94    0.10    1.00
  WSL2446              CONDUIT     11.25     0  02:43      0.89    0.19    1.00
  WSL2447              CONDUIT     11.38     0  02:43      0.83    0.59    1.00
  WSL2448              CONDUIT     11.51     0  02:42      0.69    0.32    1.00
  WSL2449              CONDUIT     11.64     0  02:43      0.66    0.41    1.00
  WSL2450              CONDUIT     11.74     0  02:42      0.75    0.24    1.00
  WSL2451              CONDUIT     11.80     0  02:42      0.74    0.77    1.00
  WSL2452              CONDUIT     11.88     0  02:42      0.78    0.23    1.00
  WSL2454              CONDUIT     12.03     0  02:42      0.93    0.28    1.00
  WSL2478              CONDUIT     12.10     0  02:43      0.81    0.43    1.00
  WSL2479              CONDUIT     21.37     0  03:00      0.71    0.41    1.00
  WSL2480              CONDUIT     15.11     0  02:22      0.80    0.70    1.00
  WSL2482              CONDUIT     14.95     0  02:22      0.71    0.39    1.00
  WSL2484              CONDUIT     11.28     0  02:22      0.80    0.16    0.93
  WSL2493              CONDUIT      6.82     0  01:47      0.51    0.11    1.00
  8                    CONDUIT     34.73     0  02:35      6.82    0.46    0.48
  19                   CONDUIT      0.00     0  00:00      0.00    0.00    0.00
  17                   CONDUIT     29.01     0  02:37      6.59    0.38    0.43
  CC-Pump-1            PUMP         0.00     0  00:00              0.00
  CC-Pump-2            PUMP         0.00     0  00:00              0.00
  
  
  ***************************
  Flow Classification Summary
  ***************************
  
  -------------------------------------------------------------------------------------
                      Adjusted    ---------- Fraction of Time in Flow Class ---------- 
                       /Actual         Up    Down  Sub   Sup   Up    Down  Norm  Inlet 
  Conduit               Length    Dry  Dry   Dry   Crit  Crit  Crit  Crit  Ltd   Ctrl  
  -------------------------------------------------------------------------------------
  WSL2038                 1.00   0.00  0.00  0.00  1.00  0.00  0.00  0.00  0.01  0.00
  WSL2039                 1.00   0.00  0.00  0.00  0.98  0.02  0.00  0.00  0.00  0.00
  WSL2041                 1.00   0.00  0.00  0.00  1.00  0.00  0.00  0.00  0.29  0.00
  WSL2294                 1.00   0.00  0.00  0.00  1.00  0.00  0.00  0.00  0.00  0.00
  WSL2295                 1.00   0.00  0.00  0.00  1.00  0.00  0.00  0.00  0.00  0.00
  WSL2296                 1.00   0.00  0.00  0.00  1.00  0.00  0.00  0.00  0.17  0.00
  WSL2297                 1.00   0.00  0.00  0.00  1.00  0.00  0.00  0.00  0.00  0.00
  WSL2298                 1.00   0.00  0.00  0.00  0.98  0.02  0.00  0.00  0.00  0.00
  WSL2301                 1.00   0.00  0.00  0.00  1.00  0.00  0.00  0.00  0.04  0.00
  WSL2302                 1.00   0.00  0.00  0.00  1.00  0.00  0.00  0.00  0.01  0.00
  WSL2441                 1.00   0.00  0.00  0.00  1.00  0.00  0.00  0.00  0.00  0.00
  WSL2442                 1.00   0.00  0.00  0.00  1.00  0.00  0.00  0.00  0.17  0.00
  WSL2443                 1.00   0.00  0.00  0.00  1.00  0.00  0.00  0.00  0.30  0.00
  WSL2444                 1.00   0.00  0.00  0.00  0.95  0.05  0.00  0.00  0.22  0.00
  WSL2446                 1.00   0.00  0.00  0.00  0.95  0.05  0.00  0.00  0.02  0.00
  WSL2447                 1.00   0.00  0.00  0.00  1.00  0.00  0.00  0.00  0.00  0.00
  WSL2448                 1.00   0.00  0.00  0.00  1.00  0.00  0.00  0.00  0.00  0.00
  WSL2449                 1.00   0.00  0.00  0.00  1.00  0.00  0.00  0.00  0.02  0.00
  WSL2450                 1.00   0.00  0.00  0.00  1.00  0.00  0.00  0.00  0.38  0.00
  WSL2451                 1.00   0.00  0.00  0.00  1.00  0.00  0.00  0.00  0.00  0.00
  WSL2452                 1.00   0.00  0.00  0.00  1.00  0.00  0.00  0.00  0.40  0.00
  WSL2454                 1.00   0.00  0.00  0.00  1.00  0.00  0.00  0.00  0.02  0.00
  WSL2478                 1.00   0.00  0.00  0.00  1.00  0.00  0.00  0.00  0.00  0.00
  WSL2479                 1.00   0.00  0.00  0.00  1.00  0.00  0.00  0.00  0.41  0.00
  WSL2480                 1.00   0.00  0.00  0.00  1.00  0.00  0.00  0.00  0.00  0.00
  WSL2482                 1.00   0.00  0.00  0.00  1.00  0.00  0.00  0.00  0.39  0.00
  WSL2484                 1.00   0.00  0.00  0.00  1.00  0.00  0.00  0.00  0.44  0.00
  WSL2493                 1.00   0.00  0.00  0.00  1.00  0.00  0.00  0.00  0.05  0.00
  8                       1.00   0.10  0.00  0.00  0.00  0.90  0.00  0.00  0.01  0.00
  19                      1.00   1.00  0.00  0.00  0.00  0.00  0.00  0.00  0.00  0.00
  17                      1.00   0.09  0.00  0.00  0.00  0.91  0.00  0.00  0.00  0.00
  
  
  *************************
  Conduit Surcharge Summary
  *************************
  
  ----------------------------------------------------------------------------
                                                           Hours        Hours 
                         --------- Hours Full --------   Above Full   Capacity
  Conduit                Both Ends  Upstream  Dnstream   Normal Flow   Limited
  ----------------------------------------------------------------------------
  WSL2294                     2.30      2.30      2.32      0.01         0.01
  WSL2295                     2.32      2.32      2.32      0.01         0.01
  WSL2296                     2.32      2.32      2.74      0.01         0.01
  WSL2297                     2.47      2.47      2.49      0.01         0.01
  WSL2298                     2.32      2.32      2.32      0.99         1.00
  WSL2301                     2.49      2.49      2.56      0.01         0.01
  WSL2302                     2.56      2.56      2.61      0.01         0.01
  WSL2441                     2.30      2.30      2.30      0.01         0.01
  WSL2442                     2.29      2.29      2.31      0.01         0.01
  WSL2443                     2.23      2.23      2.29      0.01         0.01
  WSL2444                     2.19      2.19      2.23      0.01         0.01
  WSL2446                     2.14      2.14      2.19      0.01         0.01
  WSL2447                     2.14      2.14      2.14      0.01         0.01
  WSL2448                     2.14      2.14      2.14      0.01         0.01
  WSL2449                     2.13      2.13      2.14      0.01         0.01
  WSL2450                     2.10      2.10      2.13      0.01         0.01
  WSL2451                     2.10      2.10      2.10      0.01         0.01
  WSL2452                     2.07      2.07      2.10      0.01         0.01
  WSL2454                     2.05      2.05      2.07      0.01         0.01
  WSL2478                     2.05      2.05      2.05      0.01         0.01
  WSL2479                     2.02      2.02      2.05      0.01         0.01
  WSL2480                     2.01      2.01      2.02      0.01         0.01
  WSL2482                     0.88      0.88      2.01      0.01         0.01
  WSL2484                     0.01      0.01      0.88      0.01         0.01
  WSL2493                     2.28      2.28      2.30      0.01         0.01
  
  
  ***************
  Pumping Summary
  ***************
  
  ---------------------------------------------------------------------------------------------------------
                                                  Min       Avg       Max     Total     Power    % Time Off
                        Percent   Number of      Flow      Flow      Flow    Volume     Usage    Pump Curve
  Pump                 Utilized   Start-Ups       MLD       MLD       MLD  10^6 ltr     Kw-hr    Low   High
  ---------------------------------------------------------------------------------------------------------
  CC-Pump-1                0.00           0      0.00      0.00      0.00     0.000      0.00    0.0    0.0
  CC-Pump-2                0.00           0      0.00      0.00      0.00     0.000      0.00    0.0    0.0
  
  
  ***************************
  Link Pollutant Load Summary
  ***************************
  
  ------------------------------------------------------------------------------------------
                                 COD         NH3-N            TN            TP            SS
  Link                            kg            kg            kg            kg            kg
  ------------------------------------------------------------------------------------------
  WSL2038                    150.968         0.000         0.000         0.000         0.000
  WSL2039                    156.828         0.000         0.000         0.000         0.000
  WSL2041                    153.797         0.000         0.000         0.000         0.000
  WSL2294                    374.067         0.000         0.000         0.000         0.000
  WSL2295                    367.001         0.000         0.000         0.000         0.000
  WSL2296                    368.621         0.000         0.000         0.000         0.000
  WSL2297                    368.019         0.000         0.000         0.000         0.000
  WSL2298                    365.099         0.000         0.000         0.000         0.000
  WSL2301                    365.961         0.000         0.000         0.000         0.000
  WSL2302                    366.302         0.000         0.000         0.000         0.000
  WSL2441                    380.826         0.000         0.000         0.000         0.000
  WSL2442                    115.757         0.000         0.000         0.000         0.000
  WSL2443                    113.302         0.000         0.000         0.000         0.000
  WSL2444                    112.763         0.000         0.000         0.000         0.000
  WSL2446                    112.599         0.000         0.000         0.000         0.000
  WSL2447                    112.529         0.000         0.000         0.000         0.000
  WSL2448                    112.746         0.000         0.000         0.000         0.000
  WSL2449                    112.605         0.000         0.000         0.000         0.000
  WSL2450                    112.414         0.000         0.000         0.000         0.000
  WSL2451                    112.157         0.000         0.000         0.000         0.000
  WSL2452                    112.617         0.000         0.000         0.000         0.000
  WSL2454                    112.852         0.000         0.000         0.000         0.000
  WSL2478                    112.702         0.000         0.000         0.000         0.000
  WSL2479                    217.671         0.000         0.000         0.000         0.000
  WSL2480                    223.406         0.000         0.000         0.000         0.000
  WSL2482                    219.322         0.000         0.000         0.000         0.000
  WSL2484                    160.977         0.000         0.000         0.000         0.000
  WSL2493                    115.260         0.000         0.000         0.000         0.000
  8                          410.344         0.000         0.000         0.000         0.000
  19                           0.000         0.000         0.000         0.000         0.000
  17                         361.034         0.000         0.000         0.000         0.000
  CC-Pump-1                    0.000         0.000         0.000         0.000         0.000
  CC-Pump-2                    0.000         0.000         0.000         0.000         0.000
  

  Analysis begun on:  Fri Aug 23 19:05:14 2019
  Analysis ended on:  Fri Aug 23 19:05:15 2019
  Total elapsed time: 00:00:01