
  EPA STORM WATER MANAGEMENT MODEL - VERSION 5.1 (Build 5.2.0.dev5)
  --------------------------------------------------------------

  
  *********************************************************
  NOTE: The summary statistics displayed in this report are
  based on results found at every computational time step,  
  not just on results from each reporting time step.
  *********************************************************
  
  ****************
  Analysis Options
  ****************
  Flow Units ............... MLD
  Process Models:
    Rainfall/Runoff ........ YES
    RDII ................... NO
    Snowmelt ............... NO
    Groundwater ............ NO
    Flow Routing ........... YES
    Ponding Allowed ........ NO
    Water Quality .......... YES
  Infiltration Method ...... GREEN_AMPT
  Flow Routing Method ...... DYNWAVE
  Surcharge Method ......... EXTRAN
  Starting Date ............ 08/28/2015 08:00:00
  Ending Date .............. 08/28/2015 11:50:00
  Antecedent Dry Days ...... 4.0
  Report Time Step ......... 00:01:00
  Wet Time Step ............ 00:01:00
  Dry Time Step ............ 00:01:00
  Routing Time Step ........ 5.00 sec
  Variable Time Step ....... YES
  Maximum Trials ........... 8
  Number of Threads ........ 1
  Head Tolerance ........... 0.001500 m
  
  
  **************************        Volume         Depth
  Runoff Quantity Continuity     hectare-m            mm
  **************************     ---------       -------
  Total Precipitation ......         1.371        22.163
  Evaporation Loss .........         0.000         0.000
  Infiltration Loss ........         0.519         8.384
  Surface Runoff ...........         0.318         5.138
  Final Storage ............         0.535         8.643
  Continuity Error (%) .....        -0.006
  
  
  **************************           COD         NH3-N            TN            TP            SS
  Runoff Quality Continuity             kg            kg            kg            kg            kg
  **************************    ----------    ----------    ----------    ----------    ----------
  Initial Buildup ..........      2504.640         0.000         0.000         0.000         0.000
  Surface Buildup ..........        19.682         0.000         0.000         0.000         0.000
  Wet Deposition ...........         0.000         0.000         0.000         0.000         0.000
  Sweeping Removal .........         0.000         0.000         0.000         0.000         0.000
  Infiltration Loss ........       110.782         0.000         0.000         0.000         0.000
  BMP Removal ..............         0.000         0.000         0.000         0.000         0.000
  Surface Runoff ...........       593.007         0.000         0.000         0.000         0.000
  Remaining Buildup ........      1818.164         0.000         0.000         0.000         0.000
  Continuity Error (%) .....         0.094         0.000         0.000         0.000         0.000
  
  
  **************************        Volume        Volume
  Flow Routing Continuity        hectare-m      10^6 ltr
  **************************     ---------     ---------
  Dry Weather Inflow .......         0.000         0.000
  Wet Weather Inflow .......         0.317         3.170
  Groundwater Inflow .......         0.000         0.000
  RDII Inflow ..............         0.000         0.000
  External Inflow ..........         0.082         0.822
  External Outflow .........         0.213         2.126
  Flooding Loss ............         0.121         1.206
  Evaporation Loss .........         0.000         0.000
  Exfiltration Loss ........         0.000         0.000
  Initial Stored Volume ....         0.000         0.000
  Final Stored Volume ......         0.062         0.622
  Continuity Error (%) .....         0.963
  
  
  **************************           COD         NH3-N            TN            TP            SS
  Quality Routing Continuity            kg            kg            kg            kg            kg
  **************************    ----------    ----------    ----------    ----------    ----------
  Dry Weather Inflow .......         0.000         0.000         0.000         0.000         0.000
  Wet Weather Inflow .......       591.548         0.000         0.000         0.000         0.000
  Groundwater Inflow .......         0.000         0.000         0.000         0.000         0.000
  RDII Inflow ..............         0.000         0.000         0.000         0.000         0.000
  External Inflow ..........       137.266         0.000         0.000         0.000         0.000
  External Outflow .........       368.998         0.000         0.000         0.000         0.000
  Flooding Loss ............       219.541         0.000         0.000         0.000         0.000
  Exfiltration Loss ........         0.000         0.000         0.000         0.000         0.000
  Mass Reacted .............         0.000         0.000         0.000         0.000         0.000
  Initial Stored Mass ......         0.000         0.000         0.000         0.000         0.000
  Final Stored Mass ........       133.104         0.000         0.000         0.000         0.000
  Continuity Error (%) .....         0.984         0.000         0.000         0.000         0.000
  
  
  *************************
  Highest Continuity Errors
  *************************
  Node WS02006230 (7.84%)
  Node WS02006229 (5.08%)
  Node WS02006231 (4.52%)
  Node WS02006115 (3.66%)
  Node WS02006116 (3.36%)
  
  
  ***************************
  Time-Step Critical Elements
  ***************************
  Link 8 (86.92%)
  Link WSL2448 (10.80%)
  
  
  ********************************
  Highest Flow Instability Indexes
  ********************************
  Link WSL2302 (3)
  Link WSL2301 (3)
  Link WSL2297 (3)
  Link WSL2296 (2)
  Link WSL2298 (2)
  
  
  *************************
  Routing Time Step Summary
  *************************
  Minimum Time Step           :     0.09 sec
  Average Time Step           :     1.08 sec
  Maximum Time Step           :     5.00 sec
  Percent in Steady State     :     0.00
  Average Iterations per Step :     2.07
  Percent Not Converging      :     0.46
  
  
  ***************************
  Subcatchment Runoff Summary
  ***************************
  
  ------------------------------------------------------------------------------------------------------------------------------
                            Total      Total      Total      Total     Imperv       Perv      Total       Total     Peak  Runoff
                           Precip      Runon       Evap      Infil     Runoff     Runoff     Runoff      Runoff   Runoff   Coeff
  Subcatchment                 mm         mm         mm         mm         mm         mm         mm    10^6 ltr      MLD
  ------------------------------------------------------------------------------------------------------------------------------
  1                         22.16      26.55       0.00       9.88      11.53      11.87      23.40        0.28     6.52   0.480
  2                         22.16       0.00       0.00       7.97       5.29       2.37       7.66        0.26     6.90   0.345
  3                         22.16       0.00       0.00       8.02       5.22       2.00       7.22        0.37     9.68   0.326
  35                        22.16       0.00       0.00       7.95       5.30       2.47       7.77        0.24     6.33   0.351
  36                        22.16      15.28       0.00       9.56       8.59       4.65      13.24        0.78    18.33   0.354
  40                        22.16       4.10       0.00       8.44       6.19       3.03       9.22        0.36     9.26   0.351
  41                        22.16       0.00       0.00       7.89       5.36       2.93       8.29        0.16     4.41   0.374
  42                        22.16       0.00       0.00       7.91       5.34       2.76       8.10        0.18     5.02   0.365
  43                        22.16       0.00       0.00       7.54       5.48       5.11      10.58        0.04     1.13   0.478
  44                        22.16     220.05       0.00      15.49      59.12     128.50     187.62        0.69    14.75   0.775
  45                        22.16       0.00       0.00       7.78       5.42       3.68       9.10        0.09     2.64   0.410
  46                        22.16      12.98       0.00       9.15       8.32       6.15      14.47        0.31     7.65   0.412
  47                        22.16       0.00       0.00       7.79       5.41       3.59       9.00        0.10     2.80   0.406
  48                        22.16       6.30       0.00       8.50       6.84       4.88      11.72        0.19     4.85   0.412
  55                        22.16       9.46       0.00       8.62       7.65       7.16      14.82        0.12     3.24   0.469
  56                        22.16      14.24       0.00       9.25       8.61       6.50      15.10        0.32     7.91   0.415
  57                        22.16       0.00       0.00       8.01       5.22       2.02       7.24        0.36     9.53   0.327
  59                        22.16       0.00       0.00       7.74       5.43       3.94       9.37        0.08     2.24   0.423
  60                        22.16      20.46       0.00       9.30      10.34      12.98      23.32        0.12     3.08   0.547
  61                        22.16       0.00       0.00       8.12       4.90       1.16       6.06        1.09    27.22   0.273
  64                        22.16       0.00       0.00       7.81       5.41       3.49       8.90        0.11     2.99   0.401
  
  
  ****************************
  Subcatchment Washoff Summary
  ****************************
  
  ------------------------------------------------------------------------------------------
                                 COD         NH3-N            TN            TP            SS
  Subcatchment                    kg            kg            kg            kg            kg
  ------------------------------------------------------------------------------------------
  1                           49.639         0.000         0.000         0.000         0.000
  2                            0.000         0.000         0.000         0.000         0.000
  3                            0.000         0.000         0.000         0.000         0.000
  35                          49.162         0.000         0.000         0.000         0.000
  36                         268.561         0.000         0.000         0.000         0.000
  40                          92.019         0.000         0.000         0.000         0.000
  41                          34.836         0.000         0.000         0.000         0.000
  42                          39.465         0.000         0.000         0.000         0.000
  43                           9.291         0.000         0.000         0.000         0.000
  44                         237.907         0.000         0.000         0.000         0.000
  45                          21.327         0.000         0.000         0.000         0.000
  46                         103.657         0.000         0.000         0.000         0.000
  47                          22.604         0.000         0.000         0.000         0.000
  48                          53.506         0.000         0.000         0.000         0.000
  55                          38.077         0.000         0.000         0.000         0.000
  56                         108.105         0.000         0.000         0.000         0.000
  57                          72.421         0.000         0.000         0.000         0.000
  59                          18.191         0.000         0.000         0.000         0.000
  60                          36.555         0.000         0.000         0.000         0.000
  61                         194.963         0.000         0.000         0.000         0.000
  64                          24.015         0.000         0.000         0.000         0.000
  ------------------------------------------------------------------------------------------
  System                    1474.304         0.000         0.000         0.000         0.000
  
  
  ******************
  Node Depth Summary
  ******************
  
  ---------------------------------------------------------------------------------
                                 Average  Maximum  Maximum  Time of Max    Reported
                                   Depth    Depth      HGL   Occurrence   Max Depth
  Node                 Type       Meters   Meters   Meters  days hr:min      Meters
  ---------------------------------------------------------------------------------
  WS01000070           JUNCTION     0.00     0.00     0.00     0  00:00        0.00
  WS01000323           JUNCTION     0.00     0.00     0.00     0  00:00        0.00
  WS01000533           JUNCTION     0.00     0.00     6.86     0  00:00        0.00
  WS01005172           JUNCTION     0.00     0.00     0.00     0  00:00        0.00
  WS01005181           JUNCTION     0.00     0.00     0.00     0  00:00        0.00
  WS01009841           JUNCTION     0.00     0.00     0.00     0  00:00        0.00
  WS02000078           JUNCTION     0.00     0.00     0.00     0  00:00        0.00
  WS02000112           JUNCTION     0.00     0.00     0.00     0  00:00        0.00
  WS02000136           JUNCTION     0.00     0.00     0.00     0  00:00        0.00
  WS02004053           JUNCTION     0.00     0.00     0.00     0  00:00        0.00
  WS02004401           JUNCTION     2.14     2.35     8.35     0  03:01        2.35
  WS02005192           JUNCTION     0.40     0.52     8.39     0  03:01        0.52
  WS02005193           JUNCTION     0.44     0.56     8.38     0  03:01        0.56
  WS02005196           JUNCTION     0.42     0.54     8.39     0  03:01        0.54
  WS02006109           JUNCTION     1.55     1.78     8.40     0  03:01        1.78
  WS02006110           JUNCTION     1.56     1.79     8.39     0  03:01        1.79
  WS02006111           JUNCTION     1.57     1.80     8.38     0  03:01        1.79
  WS02006112           JUNCTION     2.02     2.25     8.37     0  03:01        2.25
  WS02006113           JUNCTION     1.57     1.80     8.39     0  03:01        1.80
  WS02006115           JUNCTION     2.04     2.26     8.36     0  03:01        2.26
  WS02006116           JUNCTION     2.10     2.32     8.36     0  03:01        2.32
  WS02006183           JUNCTION     0.00     0.00     0.00     0  00:00        0.00
  WS02006228           JUNCTION     1.52     1.75     8.40     0  03:01        1.75
  WS02006229           JUNCTION     1.48     1.71     8.40     0  03:01        1.71
  WS02006230           JUNCTION     1.42     1.65     8.40     0  03:01        1.65
  WS02006231           JUNCTION     1.28     1.50     8.40     0  03:01        1.50
  WS02006232           JUNCTION     1.16     1.37     8.40     0  03:00        1.37
  WS02006234           JUNCTION     1.04     1.24     8.40     0  03:00        1.24
  WS02006235           JUNCTION     1.03     1.23     8.40     0  03:00        1.22
  WS02006238           JUNCTION     1.02     1.22     8.40     0  03:00        1.21
  WS02006239           JUNCTION     1.00     1.18     8.39     0  03:00        1.18
  WS02006242           JUNCTION     0.91     1.08     8.38     0  03:00        1.08
  WS02006240           JUNCTION     0.92     1.10     8.39     0  03:00        1.10
  WS02006243           JUNCTION     0.80     0.96     8.38     0  03:00        0.96
  WS02006245           JUNCTION     0.74     0.88     8.37     0  03:00        0.88
  WS02006247           JUNCTION     0.72     0.86     8.37     0  03:00        0.86
  WS02006248           JUNCTION     0.64     0.77     8.36     0  03:01        0.77
  WS02006249           JUNCTION     0.64     0.77     8.37     0  03:01        0.77
  WS02006251           JUNCTION     0.57     0.71     8.38     0  03:01        0.71
  WS02006253           JUNCTION     0.46     0.58     8.38     0  03:01        0.58
  WS02618401           JUNCTION     0.00     0.00     0.00     0  00:00        0.00
  WSA1649              JUNCTION     0.00     0.00     0.00     0  00:00        0.00
  outfall-5            OUTFALL      0.11     0.17     7.84     0  03:01        0.17
  outfall-14           OUTFALL      0.10     0.15     7.81     0  03:01        0.15
  outfall-16           OUTFALL      0.00     0.00     8.39     0  00:00        0.00
  CC-storage           STORAGE      5.32     5.63     8.81     0  01:35        5.63
  
  
  *******************
  Node Inflow Summary
  *******************
  
  -------------------------------------------------------------------------------------------------
                                  Maximum  Maximum                  Lateral       Total        Flow
                                  Lateral    Total  Time of Max      Inflow      Inflow     Balance
                                   Inflow   Inflow   Occurrence      Volume      Volume       Error
  Node                 Type           MLD      MLD  days hr:min    10^6 ltr    10^6 ltr     Percent
  -------------------------------------------------------------------------------------------------
  WS01000070           JUNCTION      0.00     0.00     0  00:00           0           0       0.000 ltr
  WS01000323           JUNCTION      0.00     0.00     0  00:00           0           0       0.000 ltr
  WS01000533           JUNCTION      0.00     0.00     0  00:00           0           0       0.000 ltr
  WS01005172           JUNCTION      0.00     0.00     0  00:00           0           0       0.000 ltr
  WS01005181           JUNCTION      0.00     0.00     0  00:00           0           0       0.000 ltr
  WS01009841           JUNCTION      0.00     0.00     0  00:00           0           0       0.000 ltr
  WS02000078           JUNCTION      0.00     0.00     0  00:00           0           0       0.000 ltr
  WS02000112           JUNCTION      0.00     0.00     0  00:00           0           0       0.000 ltr
  WS02000136           JUNCTION      0.00     0.00     0  00:00           0           0       0.000 ltr
  WS02004053           JUNCTION      0.00     0.00     0  00:00           0           0       0.000 ltr
  WS02004401           JUNCTION      0.05    23.80     0  03:01      0.0086       0.994       2.926
  WS02005192           JUNCTION      9.62     9.62     0  03:01       0.378       0.378       0.667
  WS02005193           JUNCTION      0.09     9.76     0  03:01       0.014       0.405       1.794
  WS02005196           JUNCTION      0.12     9.71     0  03:01      0.0183       0.394       1.678
  WS02006109           JUNCTION      0.08    13.61     0  03:01      0.0129       0.739       3.378
  WS02006110           JUNCTION      0.08    13.68     0  03:01      0.0126       0.729       3.462
  WS02006111           JUNCTION      0.24    23.32     0  03:01      0.0352        1.04       2.009
  WS02006112           JUNCTION      0.18    23.47     0  03:01      0.0263        1.04       3.223
  WS02006113           JUNCTION      9.82    23.12     0  03:01       0.393        1.06       2.264
  WS02006115           JUNCTION      0.08    23.55     0  03:01      0.0129        1.03       3.795
  WS02006116           JUNCTION      0.24    23.74     0  03:01      0.0347        1.03       3.479
  WS02006183           JUNCTION      0.00     0.00     0  00:00           0           0       0.000 ltr
  WS02006228           JUNCTION     14.90    14.90     0  03:04       0.719       0.876       2.089
  WS02006229           JUNCTION      0.13     5.65     0  01:59      0.0193       0.314       5.347
  WS02006230           JUNCTION      0.07     5.68     0  01:52      0.0111       0.325       8.510
  WS02006231           JUNCTION      0.13     5.26     0  01:48      0.0197       0.332       4.730
  WS02006232           JUNCTION      6.98     8.71     0  03:01       0.271        0.58       2.704
  WS02006234           JUNCTION      0.14     8.82     0  03:01      0.0208       0.572       2.452
  WS02006235           JUNCTION      0.14     8.94     0  03:01      0.0215       0.569       1.395
  WS02006238           JUNCTION      0.15     9.07     0  03:01      0.0226        0.57       1.782
  WS02006239           JUNCTION      0.11     9.17     0  03:01      0.0167       0.569       2.753
  WS02006242           JUNCTION      0.08     9.30     0  03:01      0.0124        0.57       3.329
  WS02006240           JUNCTION      0.06     9.23     0  03:01     0.00952       0.566       2.971
  WS02006243           JUNCTION      0.17     9.44     0  03:01      0.0259       0.577       3.075
  WS02006245           JUNCTION      0.07     9.51     0  03:01      0.0109       0.567       2.387
  WS02006247           JUNCTION      6.65    16.08     0  03:01       0.306       0.839       1.375
  WS02006248           JUNCTION      0.12    29.44     0  03:01      0.0185        1.29       0.829
  WS02006249           JUNCTION      0.19    13.37     0  03:01      0.0275       0.579       2.549
  WS02006251           JUNCTION      3.30    13.14     0  03:01       0.132       0.554       2.650
  WS02006253           JUNCTION      0.11     9.89     0  03:01      0.0166       0.421       1.752
  WS02618401           JUNCTION      0.00     0.00     0  00:00           0           0       0.000 ltr
  WSA1649              JUNCTION      0.00     0.00     0  00:00           0           0       0.000 ltr
  outfall-5            OUTFALL       0.00    29.44     0  03:01           0        1.17       0.000
  outfall-14           OUTFALL       0.00    23.79     0  03:01           0       0.959       0.000
  outfall-16           OUTFALL       0.00     0.00     0  00:00           0           0       0.000 ltr
  CC-storage           STORAGE      28.68    28.68     0  03:01        1.36        1.36       0.004
  
  
  **********************
  Node Surcharge Summary
  **********************
  
  Surcharging occurs when water rises above the top of the highest conduit.
  ---------------------------------------------------------------------
                                               Max. Height   Min. Depth
                                   Hours       Above Crown    Below Rim
  Node                 Type      Surcharged         Meters       Meters
  ---------------------------------------------------------------------
  WS01000070           JUNCTION        3.83          0.000        0.000
  WS01000323           JUNCTION        3.83          0.000        0.000
  WS01000533           JUNCTION        3.83          0.000        2.147
  WS01005172           JUNCTION        3.83          0.000        0.000
  WS01005181           JUNCTION        3.83          0.000        0.000
  WS01009841           JUNCTION        3.83          0.000        0.000
  WS02000078           JUNCTION        3.83          0.000        0.000
  WS02000112           JUNCTION        3.83          0.000        0.000
  WS02000136           JUNCTION        3.83          0.000        0.000
  WS02004053           JUNCTION        3.83          0.000        0.000
  WS02006109           JUNCTION        2.20          0.978        0.860
  WS02006110           JUNCTION        2.21          0.993        0.852
  WS02006111           JUNCTION        2.22          0.996        0.881
  WS02006112           JUNCTION        2.44          1.247        0.436
  WS02006113           JUNCTION        2.22          0.999        0.934
  WS02006115           JUNCTION        2.45          1.261        1.038
  WS02006116           JUNCTION        2.53          1.317        1.033
  WS02006183           JUNCTION        3.83          0.000        0.000
  WS02006228           JUNCTION        2.20          0.952        1.279
  WS02006229           JUNCTION        2.17          0.912        1.542
  WS02006231           JUNCTION        2.11          0.801        0.742
  WS02006232           JUNCTION        2.04          0.671        0.818
  WS02006234           JUNCTION        1.97          0.538        0.719
  WS02006235           JUNCTION        1.97          0.526        0.768
  WS02006238           JUNCTION        1.96          0.515        0.919
  WS02006239           JUNCTION        1.95          0.482        0.847
  WS02006242           JUNCTION        1.91          0.383        0.466
  WS02006240           JUNCTION        1.91          0.398        1.005
  WS02006243           JUNCTION        1.86          0.258        0.522
  WS02006245           JUNCTION        1.84          0.184        0.671
  WS02006247           JUNCTION        1.83          0.161        0.599
  WS02006249           JUNCTION        1.18          0.068        0.320
  WS02006251           JUNCTION        0.04          0.007        1.503
  WS02618401           JUNCTION        3.83          0.000        0.000
  WSA1649              JUNCTION        3.83          0.000        0.000
  
  
  *********************
  Node Flooding Summary
  *********************
  
  Flooding refers to all water that overflows a node, whether it ponds or not.
  --------------------------------------------------------------------------
                                                             Total   Maximum
                                 Maximum   Time of Max       Flood    Ponded
                        Hours       Rate    Occurrence      Volume     Depth
  Node                 Flooded       MLD   days hr:min    10^6 ltr    Meters
  --------------------------------------------------------------------------
  CC-storage              2.24     28.68      0  03:01       1.206     0.000
  
  
  **********************
  Storage Volume Summary
  **********************
  
  --------------------------------------------------------------------------------------------------
                         Average     Avg  Evap Exfil       Maximum     Max    Time of Max    Maximum
                          Volume    Pcnt  Pcnt  Pcnt        Volume    Pcnt     Occurrence    Outflow
  Storage Unit           1000 m3    Full  Loss  Loss       1000 m3    Full    days hr:min        MLD
  --------------------------------------------------------------------------------------------------
  CC-storage               0.150      95     0     0         0.159     100       0  01:35       0.00
  
  
  ***********************
  Outfall Loading Summary
  ***********************
  
  ---------------------------------------------------------------------------------------------------------------------------------
                         Flow       Avg       Max       Total         Total         Total         Total         Total         Total
                         Freq      Flow      Flow      Volume           COD         NH3-N            TN            TP            SS
  Outfall Node           Pcnt       MLD       MLD    10^6 ltr            kg            kg            kg            kg            kg
  ---------------------------------------------------------------------------------------------------------------------------------
  outfall-5             86.95     15.84     29.44       1.167       203.554         0.000         0.000         0.000         0.000
  outfall-14            86.95     13.06     23.79       0.959       165.462         0.000         0.000         0.000         0.000
  outfall-16             0.00      0.00      0.00       0.000         0.000         0.000         0.000         0.000         0.000
  ---------------------------------------------------------------------------------------------------------------------------------
  System                57.97     28.91     53.20       2.126       369.016         0.000         0.000         0.000         0.000
  
  
  ********************
  Link Flow Summary
  ********************
  
  -----------------------------------------------------------------------------
                                 Maximum  Time of Max   Maximum    Max/    Max/
                                  |Flow|   Occurrence   |Veloc|    Full    Full
  Link                 Type          MLD  days hr:min     m/sec    Flow   Depth
  -----------------------------------------------------------------------------
  WSL2038              CONDUIT      9.60     0  03:01      0.55    0.48    0.89
  WSL2039              CONDUIT      9.79     0  03:01      0.83    0.50    0.95
  WSL2041              CONDUIT      9.68     0  03:01      0.61    0.47    0.92
  WSL2294              CONDUIT     13.61     0  03:01      0.43    0.46    1.00
  WSL2295              CONDUIT     13.68     0  03:01      0.50    0.62    1.00
  WSL2296              CONDUIT     23.32     0  03:01      0.63    0.13    1.00
  WSL2297              CONDUIT     23.47     0  03:01      0.35    0.45    1.00
  WSL2298              CONDUIT     23.12     0  03:01      0.87    1.06    1.00
  WSL2301              CONDUIT     23.55     0  03:01      0.35    0.22    1.00
  WSL2302              CONDUIT     23.75     0  03:01      0.35    0.29    1.00
  WSL2441              CONDUIT     13.53     0  03:01      0.44    0.35    1.00
  WSL2442              CONDUIT      5.61     0  01:52      0.63    0.14    1.00
  WSL2443              CONDUIT      5.13     0  01:48      0.73    0.08    1.00
  WSL2444              CONDUIT      5.26     0  01:48      0.90    0.08    1.00
  WSL2446              CONDUIT      8.71     0  03:01      0.86    0.15    1.00
  WSL2447              CONDUIT      8.82     0  03:01      0.75    0.45    1.00
  WSL2448              CONDUIT      8.94     0  03:01      0.62    0.25    1.00
  WSL2449              CONDUIT      9.07     0  03:01      0.59    0.32    1.00
  WSL2450              CONDUIT      9.17     0  03:01      0.68    0.19    1.00
  WSL2451              CONDUIT      9.23     0  03:01      0.66    0.60    1.00
  WSL2452              CONDUIT      9.30     0  03:01      0.68    0.18    1.00
  WSL2454              CONDUIT      9.44     0  03:01      0.83    0.22    1.00
  WSL2478              CONDUIT      9.51     0  03:01      0.72    0.34    1.00
  WSL2479              CONDUIT     16.09     0  03:01      0.64    0.31    1.00
  WSL2480              CONDUIT     13.38     0  03:01      0.70    0.62    1.00
  WSL2482              CONDUIT     13.21     0  03:01      0.62    0.34    1.00
  WSL2484              CONDUIT     10.01     0  03:01      0.71    0.14    0.91
  WSL2493              CONDUIT      5.52     0  01:59      0.51    0.09    1.00
  8                    CONDUIT     29.44     0  03:01      6.54    0.39    0.43
  19                   CONDUIT      0.00     0  00:00      0.00    0.00    0.00
  17                   CONDUIT     23.79     0  03:01      6.25    0.31    0.38
  CC-Pump-1            PUMP         0.00     0  00:00              0.00
  CC-Pump-2            PUMP         0.00     0  00:00              0.00
  
  
  ***************************
  Flow Classification Summary
  ***************************
  
  -------------------------------------------------------------------------------------
                      Adjusted    ---------- Fraction of Time in Flow Class ---------- 
                       /Actual         Up    Down  Sub   Sup   Up    Down  Norm  Inlet 
  Conduit               Length    Dry  Dry   Dry   Crit  Crit  Crit  Crit  Ltd   Ctrl  
  -------------------------------------------------------------------------------------
  WSL2038                 1.00   0.00  0.00  0.00  1.00  0.00  0.00  0.00  0.01  0.00
  WSL2039                 1.00   0.00  0.00  0.00  1.00  0.00  0.00  0.00  0.00  0.00
  WSL2041                 1.00   0.00  0.00  0.00  1.00  0.00  0.00  0.00  0.31  0.00
  WSL2294                 1.00   0.00  0.00  0.00  1.00  0.00  0.00  0.00  0.00  0.00
  WSL2295                 1.00   0.00  0.00  0.00  1.00  0.00  0.00  0.00  0.00  0.00
  WSL2296                 1.00   0.00  0.00  0.00  1.00  0.00  0.00  0.00  0.17  0.00
  WSL2297                 1.00   0.00  0.00  0.00  1.00  0.00  0.00  0.00  0.00  0.00
  WSL2298                 1.00   0.00  0.00  0.00  0.98  0.02  0.00  0.00  0.00  0.00
  WSL2301                 1.00   0.00  0.00  0.00  1.00  0.00  0.00  0.00  0.04  0.00
  WSL2302                 1.00   0.00  0.00  0.00  1.00  0.00  0.00  0.00  0.01  0.00
  WSL2441                 1.00   0.00  0.00  0.00  1.00  0.00  0.00  0.00  0.00  0.00
  WSL2442                 1.00   0.00  0.00  0.00  1.00  0.00  0.00  0.00  0.17  0.00
  WSL2443                 1.00   0.00  0.00  0.00  1.00  0.00  0.00  0.00  0.31  0.00
  WSL2444                 1.00   0.00  0.00  0.00  0.93  0.07  0.00  0.00  0.23  0.00
  WSL2446                 1.00   0.00  0.00  0.00  0.93  0.07  0.00  0.00  0.03  0.00
  WSL2447                 1.00   0.00  0.00  0.00  1.00  0.00  0.00  0.00  0.00  0.00
  WSL2448                 1.00   0.00  0.00  0.00  1.00  0.00  0.00  0.00  0.00  0.00
  WSL2449                 1.00   0.00  0.00  0.00  1.00  0.00  0.00  0.00  0.03  0.00
  WSL2450                 1.00   0.00  0.00  0.00  1.00  0.00  0.00  0.00  0.43  0.00
  WSL2451                 1.00   0.00  0.00  0.00  1.00  0.00  0.00  0.00  0.00  0.00
  WSL2452                 1.00   0.00  0.00  0.00  1.00  0.00  0.00  0.00  0.43  0.00
  WSL2454                 1.00   0.00  0.00  0.00  1.00  0.00  0.00  0.00  0.02  0.00
  WSL2478                 1.00   0.00  0.00  0.00  1.00  0.00  0.00  0.00  0.00  0.00
  WSL2479                 1.00   0.00  0.00  0.00  1.00  0.00  0.00  0.00  0.47  0.00
  WSL2480                 1.00   0.00  0.00  0.00  1.00  0.00  0.00  0.00  0.00  0.00
  WSL2482                 1.00   0.00  0.00  0.00  1.00  0.00  0.00  0.00  0.48  0.00
  WSL2484                 1.00   0.00  0.00  0.00  1.00  0.00  0.00  0.00  0.48  0.00
  WSL2493                 1.00   0.00  0.00  0.00  1.00  0.00  0.00  0.00  0.05  0.00
  8                       1.00   0.13  0.00  0.00  0.00  0.87  0.00  0.00  0.02  0.00
  19                      1.00   1.00  0.00  0.00  0.00  0.00  0.00  0.00  0.00  0.00
  17                      1.00   0.13  0.00  0.00  0.00  0.87  0.00  0.00  0.00  0.00
  
  
  *************************
  Conduit Surcharge Summary
  *************************
  
  ----------------------------------------------------------------------------
                                                           Hours        Hours 
                         --------- Hours Full --------   Above Full   Capacity
  Conduit                Both Ends  Upstream  Dnstream   Normal Flow   Limited
  ----------------------------------------------------------------------------
  WSL2294                     2.20      2.20      2.21      0.01         0.01
  WSL2295                     2.21      2.21      2.22      0.01         0.01
  WSL2296                     2.22      2.22      2.74      0.01         0.01
  WSL2297                     2.44      2.44      2.45      0.01         0.01
  WSL2298                     2.22      2.22      2.22      0.06         0.07
  WSL2301                     2.45      2.45      2.53      0.01         0.01
  WSL2302                     2.53      2.53      2.60      0.01         0.01
  WSL2441                     2.20      2.20      2.20      0.01         0.01
  WSL2442                     2.19      2.19      2.22      0.01         0.01
  WSL2443                     2.11      2.11      2.19      0.01         0.01
  WSL2444                     2.04      2.04      2.11      0.01         0.01
  WSL2446                     1.97      1.97      2.04      0.01         0.01
  WSL2447                     1.97      1.97      1.97      0.01         0.01
  WSL2448                     1.96      1.96      1.97      0.01         0.01
  WSL2449                     1.95      1.95      1.96      0.01         0.01
  WSL2450                     1.91      1.91      1.95      0.01         0.01
  WSL2451                     1.91      1.91      1.91      0.01         0.01
  WSL2452                     1.86      1.86      1.91      0.01         0.01
  WSL2454                     1.84      1.84      1.86      0.01         0.01
  WSL2478                     1.83      1.83      1.84      0.01         0.01
  WSL2479                     1.52      1.52      1.83      0.01         0.01
  WSL2480                     1.18      1.18      1.52      0.01         0.01
  WSL2482                     0.04      0.04      1.18      0.01         0.01
  WSL2484                     0.01      0.01      0.04      0.01         0.01
  WSL2493                     2.17      2.17      2.20      0.01         0.01
  
  
  ***************
  Pumping Summary
  ***************
  
  ---------------------------------------------------------------------------------------------------------
                                                  Min       Avg       Max     Total     Power    % Time Off
                        Percent   Number of      Flow      Flow      Flow    Volume     Usage    Pump Curve
  Pump                 Utilized   Start-Ups       MLD       MLD       MLD  10^6 ltr     Kw-hr    Low   High
  ---------------------------------------------------------------------------------------------------------
  CC-Pump-1                0.00           0      0.00      0.00      0.00     0.000      0.00    0.0    0.0
  CC-Pump-2                0.00           0      0.00      0.00      0.00     0.000      0.00    0.0    0.0
  
  
  ***************************
  Link Pollutant Load Summary
  ***************************
  
  ------------------------------------------------------------------------------------------
                                 COD         NH3-N            TN            TP            SS
  Link                            kg            kg            kg            kg            kg
  ------------------------------------------------------------------------------------------
  WSL2038                     75.147         0.000         0.000         0.000         0.000
  WSL2039                     80.223         0.000         0.000         0.000         0.000
  WSL2041                     77.739         0.000         0.000         0.000         0.000
  WSL2294                    199.571         0.000         0.000         0.000         0.000
  WSL2295                    189.700         0.000         0.000         0.000         0.000
  WSL2296                    186.434         0.000         0.000         0.000         0.000
  WSL2297                    180.477         0.000         0.000         0.000         0.000
  WSL2298                    184.986         0.000         0.000         0.000         0.000
  WSL2301                    174.946         0.000         0.000         0.000         0.000
  WSL2302                    170.855         0.000         0.000         0.000         0.000
  WSL2441                    208.603         0.000         0.000         0.000         0.000
  WSL2442                     72.960         0.000         0.000         0.000         0.000
  WSL2443                     68.992         0.000         0.000         0.000         0.000
  WSL2444                     66.522         0.000         0.000         0.000         0.000
  WSL2446                     65.010         0.000         0.000         0.000         0.000
  WSL2447                     63.905         0.000         0.000         0.000         0.000
  WSL2448                     63.654         0.000         0.000         0.000         0.000
  WSL2449                     62.279         0.000         0.000         0.000         0.000
  WSL2450                     61.066         0.000         0.000         0.000         0.000
  WSL2451                     59.814         0.000         0.000         0.000         0.000
  WSL2452                     59.056         0.000         0.000         0.000         0.000
  WSL2454                     58.150         0.000         0.000         0.000         0.000
  WSL2478                     57.570         0.000         0.000         0.000         0.000
  WSL2479                    105.108         0.000         0.000         0.000         0.000
  WSL2480                    125.237         0.000         0.000         0.000         0.000
  WSL2482                    121.508         0.000         0.000         0.000         0.000
  WSL2484                     83.294         0.000         0.000         0.000         0.000
  WSL2493                     74.681         0.000         0.000         0.000         0.000
  8                          203.554         0.000         0.000         0.000         0.000
  19                           0.000         0.000         0.000         0.000         0.000
  17                         165.462         0.000         0.000         0.000         0.000
  CC-Pump-1                    0.000         0.000         0.000         0.000         0.000
  CC-Pump-2                    0.000         0.000         0.000         0.000         0.000
  

  Analysis begun on:  Fri Aug 23 19:04:54 2019
  Analysis ended on:  Fri Aug 23 19:04:54 2019
  Total elapsed time: < 1 sec