
  EPA STORM WATER MANAGEMENT MODEL - VERSION 5.1 (Build 5.2.0.dev5)
  --------------------------------------------------------------

  
  *********************************************************
  NOTE: The summary statistics displayed in this report are
  based on results found at every computational time step,  
  not just on results from each reporting time step.
  *********************************************************
  
  ****************
  Analysis Options
  ****************
  Flow Units ............... MLD
  Process Models:
    Rainfall/Runoff ........ YES
    RDII ................... NO
    Snowmelt ............... NO
    Groundwater ............ NO
    Flow Routing ........... YES
    Ponding Allowed ........ NO
    Water Quality .......... YES
  Infiltration Method ...... GREEN_AMPT
  Flow Routing Method ...... DYNWAVE
  Surcharge Method ......... EXTRAN
  Starting Date ............ 08/28/2015 08:00:00
  Ending Date .............. 08/28/2015 11:50:00
  Antecedent Dry Days ...... 4.0
  Report Time Step ......... 00:01:00
  Wet Time Step ............ 00:01:00
  Dry Time Step ............ 00:01:00
  Routing Time Step ........ 5.00 sec
  Variable Time Step ....... YES
  Maximum Trials ........... 8
  Number of Threads ........ 1
  Head Tolerance ........... 0.001500 m
  
  
  **************************        Volume         Depth
  Runoff Quantity Continuity     hectare-m            mm
  **************************     ---------       -------
  Total Precipitation ......         1.821        29.445
  Evaporation Loss .........         0.000         0.000
  Infiltration Loss ........         0.617         9.973
  Surface Runoff ...........         0.521         8.420
  Final Storage ............         0.684        11.052
  Continuity Error (%) .....        -0.004
  
  
  **************************           COD         NH3-N            TN            TP            SS
  Runoff Quality Continuity             kg            kg            kg            kg            kg
  **************************    ----------    ----------    ----------    ----------    ----------
  Initial Buildup ..........      2504.640         0.000         0.000         0.000         0.000
  Surface Buildup ..........        19.473         0.000         0.000         0.000         0.000
  Wet Deposition ...........         0.000         0.000         0.000         0.000         0.000
  Sweeping Removal .........         0.000         0.000         0.000         0.000         0.000
  Infiltration Loss ........       176.156         0.000         0.000         0.000         0.000
  BMP Removal ..............         0.000         0.000         0.000         0.000         0.000
  Surface Runoff ...........      1058.807         0.000         0.000         0.000         0.000
  Remaining Buildup ........      1288.179         0.000         0.000         0.000         0.000
  Continuity Error (%) .....         0.039         0.000         0.000         0.000         0.000
  
  
  **************************        Volume        Volume
  Flow Routing Continuity        hectare-m      10^6 ltr
  **************************     ---------     ---------
  Dry Weather Inflow .......         0.000         0.000
  Wet Weather Inflow .......         0.520         5.197
  Groundwater Inflow .......         0.000         0.000
  RDII Inflow ..............         0.000         0.000
  External Inflow ..........         0.082         0.822
  External Outflow .........         0.357         3.572
  Flooding Loss ............         0.179         1.787
  Evaporation Loss .........         0.000         0.000
  Exfiltration Loss ........         0.000         0.000
  Initial Stored Volume ....         0.000         0.000
  Final Stored Volume ......         0.062         0.623
  Continuity Error (%) .....         0.612
  
  
  **************************           COD         NH3-N            TN            TP            SS
  Quality Routing Continuity            kg            kg            kg            kg            kg
  **************************    ----------    ----------    ----------    ----------    ----------
  Dry Weather Inflow .......         0.000         0.000         0.000         0.000         0.000
  Wet Weather Inflow .......      1057.319         0.000         0.000         0.000         0.000
  Groundwater Inflow .......         0.000         0.000         0.000         0.000         0.000
  RDII Inflow ..............         0.000         0.000         0.000         0.000         0.000
  External Inflow ..........       137.263         0.000         0.000         0.000         0.000
  External Outflow .........       695.773         0.000         0.000         0.000         0.000
  Flooding Loss ............       395.866         0.000         0.000         0.000         0.000
  Exfiltration Loss ........         0.000         0.000         0.000         0.000         0.000
  Mass Reacted .............         0.000         0.000         0.000         0.000         0.000
  Initial Stored Mass ......         0.000         0.000         0.000         0.000         0.000
  Final Stored Mass ........        95.147         0.000         0.000         0.000         0.000
  Continuity Error (%) .....         0.653         0.000         0.000         0.000         0.000
  
  
  *************************
  Highest Continuity Errors
  *************************
  Node WS02006230 (5.82%)
  Node WS02006229 (3.64%)
  Node WS02006231 (3.30%)
  Node WS02006115 (2.22%)
  Node WS02006242 (2.18%)
  
  
  ***************************
  Time-Step Critical Elements
  ***************************
  Link 8 (89.73%)
  Link WSL2448 (8.16%)
  
  
  ********************************
  Highest Flow Instability Indexes
  ********************************
  Link WSL2302 (2)
  Link WSL2301 (2)
  Link WSL2297 (2)
  Link WSL2296 (2)
  Link WSL2298 (1)
  
  
  *************************
  Routing Time Step Summary
  *************************
  Minimum Time Step           :     0.10 sec
  Average Time Step           :     0.91 sec
  Maximum Time Step           :     5.00 sec
  Percent in Steady State     :    -0.00
  Average Iterations per Step :     2.07
  Percent Not Converging      :     0.49
  
  
  ***************************
  Subcatchment Runoff Summary
  ***************************
  
  ------------------------------------------------------------------------------------------------------------------------------
                            Total      Total      Total      Total     Imperv       Perv      Total       Total     Peak  Runoff
                           Precip      Runon       Evap      Infil     Runoff     Runoff     Runoff      Runoff   Runoff   Coeff
  Subcatchment                 mm         mm         mm         mm         mm         mm         mm    10^6 ltr      MLD
  ------------------------------------------------------------------------------------------------------------------------------
  1                         29.45      45.93       0.00      12.03      18.06      25.17      43.23        0.52     8.15   0.573
  2                         29.45       0.00       0.00       9.37       7.14       4.84      11.98        0.40     7.05   0.407
  3                         29.45       0.00       0.00       9.47       7.08       4.15      11.24        0.57    10.01   0.382
  35                        29.45       0.00       0.00       9.34       7.16       5.02      12.18        0.37     6.44   0.414
  36                        29.45      25.07       0.00      11.70      12.77      10.22      22.99        1.36    19.85   0.422
  40                        29.45       6.45       0.00      10.05       8.60       6.30      14.90        0.58     9.51   0.415
  41                        29.45       0.00       0.00       9.21       7.20       5.84      13.04        0.25     4.43   0.443
  42                        29.45       0.00       0.00       9.26       7.19       5.54      12.72        0.29     5.07   0.432
  43                        29.45       0.00       0.00       8.57       7.31       9.28      16.58        0.06     1.09   0.563
  44                        29.45     380.59       0.00      18.71     100.71     242.22     342.93        1.27    20.58   0.836
  45                        29.45       0.00       0.00       9.00       7.25       7.10      14.35        0.15     2.60   0.487
  46                        29.45      21.10       0.00      11.00      12.12      12.79      24.91        0.53     7.93   0.493
  47                        29.45       0.00       0.00       9.03       7.25       6.94      14.19        0.16     2.77   0.482
  48                        29.45       9.95       0.00      10.04       9.56       9.76      19.32        0.31     4.86   0.490
  55                        29.45      14.92       0.00      10.12      10.82      13.86      24.68        0.20     3.23   0.556
  56                        29.45      23.06       0.00      11.14      12.59      13.51      26.10        0.56     8.31   0.497
  57                        29.45       0.00       0.00       9.47       7.09       4.18      11.27        0.56     9.85   0.383
  59                        29.45       0.00       0.00       8.92       7.27       7.52      14.78        0.12     2.20   0.502
  60                        29.45      32.29       0.00      10.91      15.08      24.32      39.41        0.20     3.24   0.638
  61                        29.45       0.00       0.00       9.70       6.79       2.50       9.29        1.67    29.13   0.315
  64                        29.45       0.00       0.00       9.05       7.24       6.79      14.03        0.17     2.96   0.476
  
  
  ****************************
  Subcatchment Washoff Summary
  ****************************
  
  ------------------------------------------------------------------------------------------
                                 COD         NH3-N            TN            TP            SS
  Subcatchment                    kg            kg            kg            kg            kg
  ------------------------------------------------------------------------------------------
  1                           96.341         0.000         0.000         0.000         0.000
  2                            0.000         0.000         0.000         0.000         0.000
  3                            0.000         0.000         0.000         0.000         0.000
  35                          86.460         0.000         0.000         0.000         0.000
  36                         431.625         0.000         0.000         0.000         0.000
  40                         159.869         0.000         0.000         0.000         0.000
  41                          59.722         0.000         0.000         0.000         0.000
  42                          68.325         0.000         0.000         0.000         0.000
  43                          13.869         0.000         0.000         0.000         0.000
  44                         410.810         0.000         0.000         0.000         0.000
  45                          34.956         0.000         0.000         0.000         0.000
  46                         156.889         0.000         0.000         0.000         0.000
  47                          37.267         0.000         0.000         0.000         0.000
  48                          84.091         0.000         0.000         0.000         0.000
  55                          54.571         0.000         0.000         0.000         0.000
  56                         159.092         0.000         0.000         0.000         0.000
  57                         130.375         0.000         0.000         0.000         0.000
  59                          29.325         0.000         0.000         0.000         0.000
  60                          51.825         0.000         0.000         0.000         0.000
  61                         366.710         0.000         0.000         0.000         0.000
  64                          39.829         0.000         0.000         0.000         0.000
  ------------------------------------------------------------------------------------------
  System                    2471.950         0.000         0.000         0.000         0.000
  
  
  ******************
  Node Depth Summary
  ******************
  
  ---------------------------------------------------------------------------------
                                 Average  Maximum  Maximum  Time of Max    Reported
                                   Depth    Depth      HGL   Occurrence   Max Depth
  Node                 Type       Meters   Meters   Meters  days hr:min      Meters
  ---------------------------------------------------------------------------------
  WS01000070           JUNCTION     0.00     0.00     0.00     0  00:00        0.00
  WS01000323           JUNCTION     0.00     0.00     0.00     0  00:00        0.00
  WS01000533           JUNCTION     0.00     0.00     6.86     0  00:00        0.00
  WS01005172           JUNCTION     0.00     0.00     0.00     0  00:00        0.00
  WS01005181           JUNCTION     0.00     0.00     0.00     0  00:00        0.00
  WS01009841           JUNCTION     0.00     0.00     0.00     0  00:00        0.00
  WS02000078           JUNCTION     0.00     0.00     0.00     0  00:00        0.00
  WS02000112           JUNCTION     0.00     0.00     0.00     0  00:00        0.00
  WS02000136           JUNCTION     0.00     0.00     0.00     0  00:00        0.00
  WS02004053           JUNCTION     0.00     0.00     0.00     0  00:00        0.00
  WS02004401           JUNCTION     2.20     2.36     8.36     0  02:37        2.36
  WS02005192           JUNCTION     0.45     0.52     8.39     0  02:26        0.52
  WS02005193           JUNCTION     0.49     0.56     8.38     0  02:27        0.56
  WS02005196           JUNCTION     0.46     0.54     8.39     0  01:51        0.54
  WS02006109           JUNCTION     1.62     1.79     8.41     0  02:38        1.79
  WS02006110           JUNCTION     1.63     1.80     8.40     0  02:37        1.80
  WS02006111           JUNCTION     1.64     1.80     8.38     0  02:36        1.80
  WS02006112           JUNCTION     2.08     2.25     8.37     0  02:36        2.25
  WS02006113           JUNCTION     1.64     1.81     8.40     0  02:36        1.81
  WS02006115           JUNCTION     2.10     2.27     8.37     0  02:36        2.27
  WS02006116           JUNCTION     2.16     2.32     8.36     0  02:36        2.32
  WS02006183           JUNCTION     0.00     0.00     0.00     0  00:00        0.00
  WS02006228           JUNCTION     1.59     1.76     8.41     0  02:39        1.76
  WS02006229           JUNCTION     1.55     1.72     8.41     0  02:39        1.72
  WS02006230           JUNCTION     1.49     1.66     8.41     0  02:38        1.66
  WS02006231           JUNCTION     1.35     1.51     8.41     0  02:39        1.51
  WS02006232           JUNCTION     1.23     1.38     8.41     0  02:38        1.38
  WS02006234           JUNCTION     1.11     1.25     8.41     0  02:38        1.25
  WS02006235           JUNCTION     1.10     1.23     8.40     0  02:38        1.23
  WS02006238           JUNCTION     1.09     1.22     8.40     0  02:38        1.22
  WS02006239           JUNCTION     1.06     1.19     8.40     0  02:38        1.19
  WS02006242           JUNCTION     0.97     1.09     8.39     0  02:38        1.09
  WS02006240           JUNCTION     0.98     1.10     8.39     0  02:38        1.10
  WS02006243           JUNCTION     0.85     0.97     8.39     0  02:38        0.97
  WS02006245           JUNCTION     0.79     0.89     8.38     0  02:37        0.89
  WS02006247           JUNCTION     0.77     0.87     8.38     0  02:37        0.87
  WS02006248           JUNCTION     0.69     0.78     8.37     0  02:34        0.78
  WS02006249           JUNCTION     0.68     0.77     8.37     0  02:32        0.77
  WS02006251           JUNCTION     0.62     0.71     8.38     0  02:29        0.71
  WS02006253           JUNCTION     0.50     0.58     8.38     0  02:29        0.58
  WS02618401           JUNCTION     0.00     0.00     0.00     0  00:00        0.00
  WSA1649              JUNCTION     0.00     0.00     0.00     0  00:00        0.00
  outfall-5            OUTFALL      0.14     0.18     7.85     0  02:34        0.18
  outfall-14           OUTFALL      0.12     0.16     7.82     0  02:37        0.16
  outfall-16           OUTFALL      0.00     0.00     8.39     0  00:00        0.00
  CC-storage           STORAGE      5.38     5.63     8.81     0  01:30        5.63
  
  
  *******************
  Node Inflow Summary
  *******************
  
  -------------------------------------------------------------------------------------------------
                                  Maximum  Maximum                  Lateral       Total        Flow
                                  Lateral    Total  Time of Max      Inflow      Inflow     Balance
                                   Inflow   Inflow   Occurrence      Volume      Volume       Error
  Node                 Type           MLD      MLD  days hr:min    10^6 ltr    10^6 ltr     Percent
  -------------------------------------------------------------------------------------------------
  WS01000070           JUNCTION      0.00     0.00     0  00:00           0           0       0.000 ltr
  WS01000323           JUNCTION      0.00     0.00     0  00:00           0           0       0.000 ltr
  WS01000533           JUNCTION      0.00     0.00     0  00:00           0           0       0.000 ltr
  WS01005172           JUNCTION      0.00     0.00     0  00:00           0           0       0.000 ltr
  WS01005181           JUNCTION      0.00     0.00     0  00:00           0           0       0.000 ltr
  WS01009841           JUNCTION      0.00     0.00     0  00:00           0           0       0.000 ltr
  WS02000078           JUNCTION      0.00     0.00     0  00:00           0           0       0.000 ltr
  WS02000112           JUNCTION      0.00     0.00     0  00:00           0           0       0.000 ltr
  WS02000136           JUNCTION      0.00     0.00     0  00:00           0           0       0.000 ltr
  WS02004053           JUNCTION      0.00     0.00     0  00:00           0           0       0.000 ltr
  WS02004401           JUNCTION      0.05    25.95     0  02:37      0.0086        1.65       1.752
  WS02005192           JUNCTION      9.95     9.95     0  02:22       0.579       0.579       0.453
  WS02005193           JUNCTION      0.09    10.13     0  02:22       0.014       0.606       1.232
  WS02005196           JUNCTION      0.12    10.05     0  02:21      0.0183       0.595       1.149
  WS02006109           JUNCTION      0.08    16.76     0  03:00      0.0129        1.19       2.066
  WS02006110           JUNCTION      0.08    16.83     0  03:00      0.0126        1.18       2.106
  WS02006111           JUNCTION      0.24    25.45     0  02:37      0.0352        1.69       1.221
  WS02006112           JUNCTION      0.18    25.61     0  02:37      0.0263         1.7       1.933
  WS02006113           JUNCTION     10.17    25.24     0  02:37       0.597        1.72       1.388
  WS02006115           JUNCTION      0.08    25.69     0  02:37      0.0129        1.68       2.271
  WS02006116           JUNCTION      0.24    25.89     0  02:37      0.0347        1.69       2.069
  WS02006183           JUNCTION      0.00     0.00     0  00:00           0           0       0.000 ltr
  WS02006228           JUNCTION     20.73    20.73     0  03:01        1.29        1.45       1.255
  WS02006229           JUNCTION      0.13     7.01     0  01:48      0.0193       0.431       3.779
  WS02006230           JUNCTION      0.07     7.04     0  01:48      0.0111       0.443       6.177
  WS02006231           JUNCTION      0.13     6.23     0  01:47      0.0197       0.451       3.407
  WS02006232           JUNCTION      7.13     9.95     0  02:43       0.416       0.842       1.843
  WS02006234           JUNCTION      0.14    10.08     0  02:43      0.0208       0.832       1.667
  WS02006235           JUNCTION      0.14    10.21     0  02:43      0.0215       0.829       0.926
  WS02006238           JUNCTION      0.15    10.34     0  02:42      0.0226       0.832       1.192
  WS02006239           JUNCTION      0.11    10.44     0  02:42      0.0167       0.833       1.850
  WS02006242           JUNCTION      0.08    10.58     0  02:42      0.0124       0.837       2.229
  WS02006240           JUNCTION      0.06    10.50     0  02:42     0.00952       0.831       1.995
  WS02006243           JUNCTION      0.17    10.73     0  02:42      0.0259       0.848       2.068
  WS02006245           JUNCTION      0.07    10.80     0  02:42      0.0109        0.84       1.596
  WS02006247           JUNCTION      8.29    18.85     0  03:00       0.545        1.35       0.846
  WS02006248           JUNCTION      0.12    31.00     0  02:34      0.0185        2.08       0.519
  WS02006249           JUNCTION      0.19    13.63     0  02:23      0.0275       0.862       1.713
  WS02006251           JUNCTION      3.29    13.47     0  02:23       0.214       0.838       1.771
  WS02006253           JUNCTION      0.11    10.21     0  02:22      0.0166       0.623       1.216
  WS02618401           JUNCTION      0.00     0.00     0  00:00           0           0       0.000 ltr
  WSA1649              JUNCTION      0.00     0.00     0  00:00           0           0       0.000 ltr
  outfall-5            OUTFALL       0.00    31.00     0  02:34           0        1.95       0.000
  outfall-14           OUTFALL       0.00    25.95     0  02:37           0        1.62       0.000
  outfall-16           OUTFALL       0.00     0.00     0  00:00           0           0       0.000 ltr
  CC-storage           STORAGE      30.75    30.75     0  02:25        1.95        1.95       0.009
  
  
  **********************
  Node Surcharge Summary
  **********************
  
  Surcharging occurs when water rises above the top of the highest conduit.
  ---------------------------------------------------------------------
                                               Max. Height   Min. Depth
                                   Hours       Above Crown    Below Rim
  Node                 Type      Surcharged         Meters       Meters
  ---------------------------------------------------------------------
  WS01000070           JUNCTION        3.83          0.000        0.000
  WS01000323           JUNCTION        3.83          0.000        0.000
  WS01000533           JUNCTION        3.83          0.000        2.147
  WS01005172           JUNCTION        3.83          0.000        0.000
  WS01005181           JUNCTION        3.83          0.000        0.000
  WS01009841           JUNCTION        3.83          0.000        0.000
  WS02000078           JUNCTION        3.83          0.000        0.000
  WS02000112           JUNCTION        3.83          0.000        0.000
  WS02000136           JUNCTION        3.83          0.000        0.000
  WS02004053           JUNCTION        3.83          0.000        0.000
  WS02006109           JUNCTION        2.29          0.987        0.851
  WS02006110           JUNCTION        2.29          1.001        0.844
  WS02006111           JUNCTION        2.30          1.002        0.875
  WS02006112           JUNCTION        2.47          1.252        0.431
  WS02006113           JUNCTION        2.30          1.005        0.928
  WS02006115           JUNCTION        2.48          1.268        1.031
  WS02006116           JUNCTION        2.55          1.324        1.026
  WS02006183           JUNCTION        3.83          0.000        0.000
  WS02006228           JUNCTION        2.28          0.962        1.269
  WS02006229           JUNCTION        2.26          0.922        1.532
  WS02006231           JUNCTION        2.21          0.810        0.733
  WS02006232           JUNCTION        2.16          0.680        0.809
  WS02006234           JUNCTION        2.12          0.546        0.711
  WS02006235           JUNCTION        2.12          0.533        0.761
  WS02006238           JUNCTION        2.12          0.523        0.911
  WS02006239           JUNCTION        2.09          0.489        0.840
  WS02006242           JUNCTION        2.07          0.390        0.459
  WS02006240           JUNCTION        2.07          0.405        0.998
  WS02006243           JUNCTION        2.04          0.265        0.515
  WS02006245           JUNCTION        2.02          0.191        0.664
  WS02006247           JUNCTION        2.01          0.168        0.592
  WS02006249           JUNCTION        1.97          0.072        0.316
  WS02006251           JUNCTION        0.74          0.010        1.500
  WS02618401           JUNCTION        3.83          0.000        0.000
  WSA1649              JUNCTION        3.83          0.000        0.000
  
  
  *********************
  Node Flooding Summary
  *********************
  
  Flooding refers to all water that overflows a node, whether it ponds or not.
  --------------------------------------------------------------------------
                                                             Total   Maximum
                                 Maximum   Time of Max       Flood    Ponded
                        Hours       Rate    Occurrence      Volume     Depth
  Node                 Flooded       MLD   days hr:min    10^6 ltr    Meters
  --------------------------------------------------------------------------
  CC-storage              2.32     30.75      0  02:25       1.787     0.000
  
  
  **********************
  Storage Volume Summary
  **********************
  
  --------------------------------------------------------------------------------------------------
                         Average     Avg  Evap Exfil       Maximum     Max    Time of Max    Maximum
                          Volume    Pcnt  Pcnt  Pcnt        Volume    Pcnt     Occurrence    Outflow
  Storage Unit           1000 m3    Full  Loss  Loss       1000 m3    Full    days hr:min        MLD
  --------------------------------------------------------------------------------------------------
  CC-storage               0.152      95     0     0         0.159     100       0  01:30       0.00
  
  
  ***********************
  Outfall Loading Summary
  ***********************
  
  ---------------------------------------------------------------------------------------------------------------------------------
                         Flow       Avg       Max       Total         Total         Total         Total         Total         Total
                         Freq      Flow      Flow      Volume           COD         NH3-N            TN            TP            SS
  Outfall Node           Pcnt       MLD       MLD    10^6 ltr            kg            kg            kg            kg            kg
  ---------------------------------------------------------------------------------------------------------------------------------
  outfall-5             90.03     23.76     31.00       1.953       368.090         0.000         0.000         0.000         0.000
  outfall-14            90.12     19.69     25.95       1.619       327.702         0.000         0.000         0.000         0.000
  outfall-16             0.00      0.00      0.00       0.000         0.000         0.000         0.000         0.000         0.000
  ---------------------------------------------------------------------------------------------------------------------------------
  System                60.05     43.45     56.93       3.572       695.792         0.000         0.000         0.000         0.000
  
  
  ********************
  Link Flow Summary
  ********************
  
  -----------------------------------------------------------------------------
                                 Maximum  Time of Max   Maximum    Max/    Max/
                                  |Flow|   Occurrence   |Veloc|    Full    Full
  Link                 Type          MLD  days hr:min     m/sec    Flow   Depth
  -----------------------------------------------------------------------------
  WSL2038              CONDUIT      9.94     0  02:21      0.64    0.49    0.89
  WSL2039              CONDUIT     10.11     0  02:22      0.95    0.52    0.95
  WSL2041              CONDUIT     10.04     0  02:22      0.71    0.49    0.92
  WSL2294              CONDUIT     16.76     0  03:00      0.43    0.56    1.00
  WSL2295              CONDUIT     16.83     0  03:00      0.50    0.76    1.00
  WSL2296              CONDUIT     25.45     0  02:37      0.63    0.14    1.00
  WSL2297              CONDUIT     25.61     0  02:37      0.38    0.49    1.00
  WSL2298              CONDUIT     25.24     0  02:37      0.87    1.16    1.00
  WSL2301              CONDUIT     25.69     0  02:37      0.38    0.24    1.00
  WSL2302              CONDUIT     25.89     0  02:37      0.38    0.32    1.00
  WSL2441              CONDUIT     16.69     0  03:00      0.44    0.43    1.00
  WSL2442              CONDUIT      6.97     0  01:48      0.63    0.18    1.00
  WSL2443              CONDUIT      6.10     0  01:47      0.73    0.10    1.00
  WSL2444              CONDUIT      6.15     0  01:47      0.93    0.10    1.00
  WSL2446              CONDUIT      9.95     0  02:43      0.88    0.17    1.00
  WSL2447              CONDUIT     10.08     0  02:43      0.81    0.52    1.00
  WSL2448              CONDUIT     10.21     0  02:42      0.67    0.29    1.00
  WSL2449              CONDUIT     10.34     0  02:42      0.64    0.36    1.00
  WSL2450              CONDUIT     10.44     0  02:42      0.74    0.22    1.00
  WSL2451              CONDUIT     10.50     0  02:42      0.73    0.68    1.00
  WSL2452              CONDUIT     10.58     0  02:42      0.76    0.20    1.00
  WSL2454              CONDUIT     10.73     0  02:42      0.92    0.25    1.00
  WSL2478              CONDUIT     10.80     0  02:42      0.80    0.38    1.00
  WSL2479              CONDUIT     18.85     0  03:00      0.70    0.36    1.00
  WSL2480              CONDUIT     13.63     0  02:23      0.78    0.63    1.00
  WSL2482              CONDUIT     13.47     0  02:23      0.70    0.35    1.00
  WSL2484              CONDUIT     10.20     0  02:22      0.78    0.14    0.91
  WSL2493              CONDUIT      6.88     0  01:48      0.51    0.12    1.00
  8                    CONDUIT     31.00     0  02:34      6.63    0.41    0.45
  19                   CONDUIT      0.00     0  00:00      0.00    0.00    0.00
  17                   CONDUIT     25.95     0  02:37      6.39    0.34    0.40
  CC-Pump-1            PUMP         0.00     0  00:00              0.00
  CC-Pump-2            PUMP         0.00     0  00:00              0.00
  
  
  ***************************
  Flow Classification Summary
  ***************************
  
  -------------------------------------------------------------------------------------
                      Adjusted    ---------- Fraction of Time in Flow Class ---------- 
                       /Actual         Up    Down  Sub   Sup   Up    Down  Norm  Inlet 
  Conduit               Length    Dry  Dry   Dry   Crit  Crit  Crit  Crit  Ltd   Ctrl  
  -------------------------------------------------------------------------------------
  WSL2038                 1.00   0.00  0.00  0.00  1.00  0.00  0.00  0.00  0.01  0.00
  WSL2039                 1.00   0.00  0.00  0.00  0.98  0.02  0.00  0.00  0.00  0.00
  WSL2041                 1.00   0.00  0.00  0.00  1.00  0.00  0.00  0.00  0.29  0.00
  WSL2294                 1.00   0.00  0.00  0.00  1.00  0.00  0.00  0.00  0.00  0.00
  WSL2295                 1.00   0.00  0.00  0.00  1.00  0.00  0.00  0.00  0.00  0.00
  WSL2296                 1.00   0.00  0.00  0.00  1.00  0.00  0.00  0.00  0.17  0.00
  WSL2297                 1.00   0.00  0.00  0.00  1.00  0.00  0.00  0.00  0.00  0.00
  WSL2298                 1.00   0.00  0.00  0.00  0.98  0.02  0.00  0.00  0.00  0.00
  WSL2301                 1.00   0.00  0.00  0.00  1.00  0.00  0.00  0.00  0.04  0.00
  WSL2302                 1.00   0.00  0.00  0.00  1.00  0.00  0.00  0.00  0.01  0.00
  WSL2441                 1.00   0.00  0.00  0.00  1.00  0.00  0.00  0.00  0.00  0.00
  WSL2442                 1.00   0.00  0.00  0.00  1.00  0.00  0.00  0.00  0.17  0.00
  WSL2443                 1.00   0.00  0.00  0.00  1.00  0.00  0.00  0.00  0.30  0.00
  WSL2444                 1.00   0.00  0.00  0.00  0.94  0.06  0.00  0.00  0.22  0.00
  WSL2446                 1.00   0.00  0.00  0.00  0.95  0.05  0.00  0.00  0.02  0.00
  WSL2447                 1.00   0.00  0.00  0.00  1.00  0.00  0.00  0.00  0.00  0.00
  WSL2448                 1.00   0.00  0.00  0.00  1.00  0.00  0.00  0.00  0.00  0.00
  WSL2449                 1.00   0.00  0.00  0.00  1.00  0.00  0.00  0.00  0.03  0.00
  WSL2450                 1.00   0.00  0.00  0.00  1.00  0.00  0.00  0.00  0.39  0.00
  WSL2451                 1.00   0.00  0.00  0.00  1.00  0.00  0.00  0.00  0.00  0.00
  WSL2452                 1.00   0.00  0.00  0.00  1.00  0.00  0.00  0.00  0.41  0.00
  WSL2454                 1.00   0.00  0.00  0.00  1.00  0.00  0.00  0.00  0.02  0.00
  WSL2478                 1.00   0.00  0.00  0.00  1.00  0.00  0.00  0.00  0.00  0.00
  WSL2479                 1.00   0.00  0.00  0.00  1.00  0.00  0.00  0.00  0.42  0.00
  WSL2480                 1.00   0.00  0.00  0.00  1.00  0.00  0.00  0.00  0.00  0.00
  WSL2482                 1.00   0.00  0.00  0.00  1.00  0.00  0.00  0.00  0.40  0.00
  WSL2484                 1.00   0.00  0.00  0.00  1.00  0.00  0.00  0.00  0.44  0.00
  WSL2493                 1.00   0.00  0.00  0.00  1.00  0.00  0.00  0.00  0.05  0.00
  8                       1.00   0.10  0.00  0.00  0.00  0.90  0.00  0.00  0.01  0.00
  19                      1.00   1.00  0.00  0.00  0.00  0.00  0.00  0.00  0.00  0.00
  17                      1.00   0.10  0.00  0.00  0.00  0.90  0.00  0.00  0.00  0.00
  
  
  *************************
  Conduit Surcharge Summary
  *************************
  
  ----------------------------------------------------------------------------
                                                           Hours        Hours 
                         --------- Hours Full --------   Above Full   Capacity
  Conduit                Both Ends  Upstream  Dnstream   Normal Flow   Limited
  ----------------------------------------------------------------------------
  WSL2294                     2.29      2.29      2.29      0.01         0.01
  WSL2295                     2.29      2.29      2.30      0.01         0.01
  WSL2296                     2.30      2.30      2.74      0.01         0.01
  WSL2297                     2.47      2.47      2.48      0.01         0.01
  WSL2298                     2.30      2.30      2.30      0.83         0.83
  WSL2301                     2.48      2.48      2.55      0.01         0.01
  WSL2302                     2.55      2.55      2.61      0.01         0.01
  WSL2441                     2.28      2.28      2.29      0.01         0.01
  WSL2442                     2.28      2.28      2.30      0.01         0.01
  WSL2443                     2.21      2.21      2.28      0.01         0.01
  WSL2444                     2.16      2.16      2.21      0.01         0.01
  WSL2446                     2.12      2.12      2.16      0.01         0.01
  WSL2447                     2.12      2.12      2.12      0.01         0.01
  WSL2448                     2.12      2.12      2.12      0.01         0.01
  WSL2449                     2.09      2.09      2.12      0.01         0.01
  WSL2450                     2.07      2.07      2.09      0.01         0.01
  WSL2451                     2.07      2.07      2.07      0.01         0.01
  WSL2452                     2.04      2.04      2.07      0.01         0.01
  WSL2454                     2.02      2.02      2.04      0.01         0.01
  WSL2478                     2.01      2.01      2.02      0.01         0.01
  WSL2479                     1.99      1.99      2.01      0.01         0.01
  WSL2480                     1.97      1.97      1.99      0.01         0.01
  WSL2482                     0.74      0.74      1.97      0.01         0.01
  WSL2484                     0.01      0.01      0.74      0.01         0.01
  WSL2493                     2.26      2.26      2.28      0.01         0.01
  
  
  ***************
  Pumping Summary
  ***************
  
  ---------------------------------------------------------------------------------------------------------
                                                  Min       Avg       Max     Total     Power    % Time Off
                        Percent   Number of      Flow      Flow      Flow    Volume     Usage    Pump Curve
  Pump                 Utilized   Start-Ups       MLD       MLD       MLD  10^6 ltr     Kw-hr    Low   High
  ---------------------------------------------------------------------------------------------------------
  CC-Pump-1                0.00           0      0.00      0.00      0.00     0.000      0.00    0.0    0.0
  CC-Pump-2                0.00           0      0.00      0.00      0.00     0.000      0.00    0.0    0.0
  
  
  ***************************
  Link Pollutant Load Summary
  ***************************
  
  ------------------------------------------------------------------------------------------
                                 COD         NH3-N            TN            TP            SS
  Link                            kg            kg            kg            kg            kg
  ------------------------------------------------------------------------------------------
  WSL2038                    133.331         0.000         0.000         0.000         0.000
  WSL2039                    139.006         0.000         0.000         0.000         0.000
  WSL2041                    136.148         0.000         0.000         0.000         0.000
  WSL2294                    344.474         0.000         0.000         0.000         0.000
  WSL2295                    336.880         0.000         0.000         0.000         0.000
  WSL2296                    337.741         0.000         0.000         0.000         0.000
  WSL2297                    336.197         0.000         0.000         0.000         0.000
  WSL2298                    334.521         0.000         0.000         0.000         0.000
  WSL2301                    333.521         0.000         0.000         0.000         0.000
  WSL2302                    333.004         0.000         0.000         0.000         0.000
  WSL2441                    351.563         0.000         0.000         0.000         0.000
  WSL2442                    108.633         0.000         0.000         0.000         0.000
  WSL2443                    105.949         0.000         0.000         0.000         0.000
  WSL2444                    104.989         0.000         0.000         0.000         0.000
  WSL2446                    104.457         0.000         0.000         0.000         0.000
  WSL2447                    104.102         0.000         0.000         0.000         0.000
  WSL2448                    104.190         0.000         0.000         0.000         0.000
  WSL2449                    103.677         0.000         0.000         0.000         0.000
  WSL2450                    103.067         0.000         0.000         0.000         0.000
  WSL2451                    102.400         0.000         0.000         0.000         0.000
  WSL2452                    102.271         0.000         0.000         0.000         0.000
  WSL2454                    101.925         0.000         0.000         0.000         0.000
  WSL2478                    101.413         0.000         0.000         0.000         0.000
  WSL2479                    195.923         0.000         0.000         0.000         0.000
  WSL2480                    201.965         0.000         0.000         0.000         0.000
  WSL2482                    197.980         0.000         0.000         0.000         0.000
  WSL2484                    142.887         0.000         0.000         0.000         0.000
  WSL2493                    108.530         0.000         0.000         0.000         0.000
  8                          368.090         0.000         0.000         0.000         0.000
  19                           0.000         0.000         0.000         0.000         0.000
  17                         327.702         0.000         0.000         0.000         0.000
  CC-Pump-1                    0.000         0.000         0.000         0.000         0.000
  CC-Pump-2                    0.000         0.000         0.000         0.000         0.000
  

  Analysis begun on:  Fri Aug 23 19:05:35 2019
  Analysis ended on:  Fri Aug 23 19:05:35 2019
  Total elapsed time: < 1 sec