
  EPA STORM WATER MANAGEMENT MODEL - VERSION 5.1 (Build 5.2.0.dev5)
  --------------------------------------------------------------

  
  *********************************************************
  NOTE: The summary statistics displayed in this report are
  based on results found at every computational time step,  
  not just on results from each reporting time step.
  *********************************************************
  
  ****************
  Analysis Options
  ****************
  Flow Units ............... MLD
  Process Models:
    Rainfall/Runoff ........ YES
    RDII ................... NO
    Snowmelt ............... NO
    Groundwater ............ NO
    Flow Routing ........... YES
    Ponding Allowed ........ NO
    Water Quality .......... YES
  Infiltration Method ...... GREEN_AMPT
  Flow Routing Method ...... DYNWAVE
  Surcharge Method ......... EXTRAN
  Starting Date ............ 08/28/2015 08:00:00
  Ending Date .............. 08/28/2015 11:50:00
  Antecedent Dry Days ...... 4.0
  Report Time Step ......... 00:01:00
  Wet Time Step ............ 00:01:00
  Dry Time Step ............ 00:01:00
  Routing Time Step ........ 5.00 sec
  Variable Time Step ....... YES
  Maximum Trials ........... 8
  Number of Threads ........ 1
  Head Tolerance ........... 0.001500 m
  
  
  **************************        Volume         Depth
  Runoff Quantity Continuity     hectare-m            mm
  **************************     ---------       -------
  Total Precipitation ......         0.372         6.013
  Evaporation Loss .........         0.000         0.000
  Infiltration Loss ........         0.291         4.703
  Surface Runoff ...........         0.050         0.815
  Final Storage ............         0.031         0.495
  Continuity Error (%) .....        -0.011
  
  
  **************************           COD         NH3-N            TN            TP            SS
  Runoff Quality Continuity             kg            kg            kg            kg            kg
  **************************    ----------    ----------    ----------    ----------    ----------
  Initial Buildup ..........      2504.640         0.000         0.000         0.000         0.000
  Surface Buildup ..........        21.134         0.000         0.000         0.000         0.000
  Wet Deposition ...........         0.000         0.000         0.000         0.000         0.000
  Sweeping Removal .........         0.000         0.000         0.000         0.000         0.000
  Infiltration Loss ........        12.047         0.000         0.000         0.000         0.000
  BMP Removal ..............         0.000         0.000         0.000         0.000         0.000
  Surface Runoff ...........        33.611         0.000         0.000         0.000         0.000
  Remaining Buildup ........      2480.065         0.000         0.000         0.000         0.000
  Continuity Error (%) .....         0.002         0.000         0.000         0.000         0.000
  
  
  **************************        Volume        Volume
  Flow Routing Continuity        hectare-m      10^6 ltr
  **************************     ---------     ---------
  Dry Weather Inflow .......         0.000         0.000
  Wet Weather Inflow .......         0.050         0.503
  Groundwater Inflow .......         0.000         0.000
  RDII Inflow ..............         0.000         0.000
  External Inflow ..........         0.082         0.822
  External Outflow .........         0.083         0.828
  Flooding Loss ............         0.001         0.006
  Evaporation Loss .........         0.000         0.000
  Exfiltration Loss ........         0.000         0.000
  Initial Stored Volume ....         0.000         0.000
  Final Stored Volume ......         0.052         0.522
  Continuity Error (%) .....        -2.297
  
  
  **************************           COD         NH3-N            TN            TP            SS
  Quality Routing Continuity            kg            kg            kg            kg            kg
  **************************    ----------    ----------    ----------    ----------    ----------
  Dry Weather Inflow .......         0.000         0.000         0.000         0.000         0.000
  Wet Weather Inflow .......        33.565         0.000         0.000         0.000         0.000
  Groundwater Inflow .......         0.000         0.000         0.000         0.000         0.000
  RDII Inflow ..............         0.000         0.000         0.000         0.000         0.000
  External Inflow ..........       137.264         0.000         0.000         0.000         0.000
  External Outflow .........        94.242         0.000         0.000         0.000         0.000
  Flooding Loss ............         0.542         0.000         0.000         0.000         0.000
  Exfiltration Loss ........         0.000         0.000         0.000         0.000         0.000
  Mass Reacted .............         0.000         0.000         0.000         0.000         0.000
  Initial Stored Mass ......         0.000         0.000         0.000         0.000         0.000
  Final Stored Mass ........        67.893         0.000         0.000         0.000         0.000
  Continuity Error (%) .....         4.772         0.000         0.000         0.000         0.000
  
  
  *************************
  Highest Continuity Errors
  *************************
  Node WS02006115 (9.36%)
  Node WS02006230 (8.59%)
  Node WS02006116 (8.47%)
  Node WS02004401 (7.81%)
  Node WS02006112 (7.78%)
  
  
  ***************************
  Time-Step Critical Elements
  ***************************
  Link 8 (78.49%)
  Link WSL2448 (11.40%)
  Link 17 (7.72%)
  
  
  ********************************
  Highest Flow Instability Indexes
  ********************************
  Link WSL2302 (3)
  Link WSL2301 (3)
  Link WSL2297 (3)
  Link WSL2296 (3)
  Link WSL2298 (2)
  
  
  *************************
  Routing Time Step Summary
  *************************
  Minimum Time Step           :     0.43 sec
  Average Time Step           :     1.33 sec
  Maximum Time Step           :     5.00 sec
  Percent in Steady State     :     0.00
  Average Iterations per Step :     2.16
  Percent Not Converging      :     2.11
  
  
  ***************************
  Subcatchment Runoff Summary
  ***************************
  
  ------------------------------------------------------------------------------------------------------------------------------
                            Total      Total      Total      Total     Imperv       Perv      Total       Total     Peak  Runoff
                           Precip      Runon       Evap      Infil     Runoff     Runoff     Runoff      Runoff   Runoff   Coeff
  Subcatchment                 mm         mm         mm         mm         mm         mm         mm    10^6 ltr      MLD
  ------------------------------------------------------------------------------------------------------------------------------
  1                          6.01       3.50       0.00       5.43       2.20       0.32       2.52        0.03     0.58   0.265
  2                          6.01       0.00       0.00       4.49       1.34       0.02       1.36        0.05     0.84   0.225
  3                          6.01       0.00       0.00       4.49       1.30       0.02       1.31        0.07     1.23   0.218
  35                         6.01       0.00       0.00       4.49       1.35       0.02       1.37        0.04     0.76   0.227
  36                         6.01       2.40       0.00       5.24       1.80       0.10       1.89        0.11     2.08   0.225
  40                         6.01       0.69       0.00       4.86       1.48       0.04       1.51        0.06     1.10   0.226
  41                         6.01       0.00       0.00       4.49       1.38       0.02       1.40        0.03     0.50   0.233
  42                         6.01       0.00       0.00       4.49       1.37       0.02       1.39        0.03     0.59   0.231
  43                         6.01       0.00       0.00       4.46       1.45       0.05       1.51        0.01     0.11   0.251
  44                         6.01      31.57       0.00       8.45       9.04      10.76      19.80        0.07     1.37   0.527
  45                         6.01       0.00       0.00       4.48       1.41       0.03       1.45        0.01     0.28   0.241
  46                         6.01       1.95       0.00       5.15       1.82       0.12       1.94        0.04     0.78   0.243
  47                         6.01       0.00       0.00       4.48       1.41       0.03       1.44        0.02     0.30   0.240
  48                         6.01       1.01       0.00       4.94       1.63       0.07       1.70        0.03     0.50   0.242
  55                         6.01       1.48       0.00       5.05       1.77       0.14       1.91        0.02     0.30   0.256
  56                         6.01       2.13       0.00       5.18       1.85       0.13       1.99        0.04     0.80   0.244
  57                         6.01       0.00       0.00       4.49       1.30       0.02       1.32        0.07     1.21   0.219
  59                         6.01       0.00       0.00       4.47       1.42       0.04       1.46        0.01     0.23   0.243
  60                         6.01       3.31       0.00       5.43       2.23       0.44       2.67        0.01     0.27   0.287
  61                         6.01       0.00       0.00       4.50       1.14       0.01       1.15        0.21     3.80   0.191
  64                         6.01       0.00       0.00       4.48       1.41       0.03       1.44        0.02     0.32   0.239
  
  
  ****************************
  Subcatchment Washoff Summary
  ****************************
  
  ------------------------------------------------------------------------------------------
                                 COD         NH3-N            TN            TP            SS
  Subcatchment                    kg            kg            kg            kg            kg
  ------------------------------------------------------------------------------------------
  1                            0.894         0.000         0.000         0.000         0.000
  2                            0.000         0.000         0.000         0.000         0.000
  3                            0.000         0.000         0.000         0.000         0.000
  35                           1.856         0.000         0.000         0.000         0.000
  36                           8.790         0.000         0.000         0.000         0.000
  40                           3.237         0.000         0.000         0.000         0.000
  41                           1.254         0.000         0.000         0.000         0.000
  42                           1.447         0.000         0.000         0.000         0.000
  43                           0.272         0.000         0.000         0.000         0.000
  44                          20.773         0.000         0.000         0.000         0.000
  45                           0.711         0.000         0.000         0.000         0.000
  46                           3.166         0.000         0.000         0.000         0.000
  47                           0.760         0.000         0.000         0.000         0.000
  48                           1.670         0.000         0.000         0.000         0.000
  55                           1.130         0.000         0.000         0.000         0.000
  56                           3.391         0.000         0.000         0.000         0.000
  57                           2.854         0.000         0.000         0.000         0.000
  59                           0.591         0.000         0.000         0.000         0.000
  60                           1.385         0.000         0.000         0.000         0.000
  61                           7.961         0.000         0.000         0.000         0.000
  64                           0.816         0.000         0.000         0.000         0.000
  ------------------------------------------------------------------------------------------
  System                      62.958         0.000         0.000         0.000         0.000
  
  
  ******************
  Node Depth Summary
  ******************
  
  ---------------------------------------------------------------------------------
                                 Average  Maximum  Maximum  Time of Max    Reported
                                   Depth    Depth      HGL   Occurrence   Max Depth
  Node                 Type       Meters   Meters   Meters  days hr:min      Meters
  ---------------------------------------------------------------------------------
  WS01000070           JUNCTION     0.00     0.00     0.00     0  00:00        0.00
  WS01000323           JUNCTION     0.00     0.00     0.00     0  00:00        0.00
  WS01000533           JUNCTION     0.00     0.00     6.86     0  00:00        0.00
  WS01005172           JUNCTION     0.00     0.00     0.00     0  00:00        0.00
  WS01005181           JUNCTION     0.00     0.00     0.00     0  00:00        0.00
  WS01009841           JUNCTION     0.00     0.00     0.00     0  00:00        0.00
  WS02000078           JUNCTION     0.00     0.00     0.00     0  00:00        0.00
  WS02000112           JUNCTION     0.00     0.00     0.00     0  00:00        0.00
  WS02000136           JUNCTION     0.00     0.00     0.00     0  00:00        0.00
  WS02004053           JUNCTION     0.00     0.00     0.00     0  00:00        0.00
  WS02004401           JUNCTION     2.07     2.31     8.31     0  03:03        2.31
  WS02005192           JUNCTION     0.36     0.66     8.53     0  03:00        0.65
  WS02005193           JUNCTION     0.41     0.70     8.52     0  03:00        0.70
  WS02005196           JUNCTION     0.38     0.68     8.53     0  03:00        0.67
  WS02006109           JUNCTION     1.47     1.71     8.33     0  03:00        1.71
  WS02006110           JUNCTION     1.49     1.73     8.33     0  03:00        1.72
  WS02006111           JUNCTION     1.50     1.74     8.32     0  03:03        1.74
  WS02006112           JUNCTION     1.95     2.20     8.32     0  03:03        2.19
  WS02006113           JUNCTION     1.50     1.73     8.32     0  03:00        1.73
  WS02006115           JUNCTION     1.97     2.21     8.31     0  03:03        2.21
  WS02006116           JUNCTION     2.03     2.27     8.31     0  03:03        2.27
  WS02006183           JUNCTION     0.00     0.00     0.00     0  00:00        0.00
  WS02006228           JUNCTION     1.44     1.68     8.33     0  03:01        1.68
  WS02006229           JUNCTION     1.40     1.64     8.33     0  03:01        1.64
  WS02006230           JUNCTION     1.35     1.59     8.34     0  03:01        1.59
  WS02006231           JUNCTION     1.21     1.44     8.34     0  03:00        1.44
  WS02006232           JUNCTION     1.09     1.48     8.51     0  01:41        1.31
  WS02006234           JUNCTION     0.97     1.19     8.35     0  01:53        1.19
  WS02006235           JUNCTION     0.97     1.19     8.36     0  01:53        1.18
  WS02006238           JUNCTION     0.96     1.19     8.37     0  01:53        1.17
  WS02006239           JUNCTION     0.93     1.16     8.37     0  01:53        1.14
  WS02006242           JUNCTION     0.86     1.11     8.41     0  01:53        1.06
  WS02006240           JUNCTION     0.86     1.11     8.40     0  01:53        1.06
  WS02006243           JUNCTION     0.75     1.05     8.47     0  01:53        0.94
  WS02006245           JUNCTION     0.69     1.04     8.53     0  01:53        0.87
  WS02006247           JUNCTION     0.67     0.95     8.46     0  01:53        0.86
  WS02006248           JUNCTION     0.60     0.78     8.37     0  03:00        0.78
  WS02006249           JUNCTION     0.60     0.80     8.40     0  03:00        0.80
  WS02006251           JUNCTION     0.54     0.81     8.48     0  03:00        0.80
  WS02006253           JUNCTION     0.42     0.72     8.52     0  03:00        0.71
  WS02618401           JUNCTION     0.00     0.00     0.00     0  00:00        0.00
  WSA1649              JUNCTION     0.00     0.00     0.00     0  00:00        0.00
  outfall-5            OUTFALL      0.07     0.18     7.85     0  03:00        0.18
  outfall-14           OUTFALL      0.05     0.11     7.77     0  03:04        0.11
  outfall-16           OUTFALL      0.00     0.00     8.39     0  00:00        0.00
  CC-storage           STORAGE      2.08     5.63     8.81     0  02:49        5.63
  
  
  *******************
  Node Inflow Summary
  *******************
  
  -------------------------------------------------------------------------------------------------
                                  Maximum  Maximum                  Lateral       Total        Flow
                                  Lateral    Total  Time of Max      Inflow      Inflow     Balance
                                   Inflow   Inflow   Occurrence      Volume      Volume       Error
  Node                 Type           MLD      MLD  days hr:min    10^6 ltr    10^6 ltr     Percent
  -------------------------------------------------------------------------------------------------
  WS01000070           JUNCTION      0.00     0.00     0  00:00           0           0       0.000 ltr
  WS01000323           JUNCTION      0.00     0.00     0  00:00           0           0       0.000 ltr
  WS01000533           JUNCTION      0.00     0.00     0  00:00           0           0       0.000 ltr
  WS01005172           JUNCTION      0.00     0.00     0  00:00           0           0       0.000 ltr
  WS01005181           JUNCTION      0.00     0.00     0  00:00           0           0       0.000 ltr
  WS01009841           JUNCTION      0.00     0.00     0  00:00           0           0       0.000 ltr
  WS02000078           JUNCTION      0.00     0.00     0  00:00           0           0       0.000 ltr
  WS02000112           JUNCTION      0.00     0.00     0  00:00           0           0       0.000 ltr
  WS02000136           JUNCTION      0.00     0.00     0  00:00           0           0       0.000 ltr
  WS02004053           JUNCTION      0.00     0.00     0  00:00           0           0       0.000 ltr
  WS02004401           JUNCTION      0.05    13.11     0  03:03      0.0086       0.358       8.471
  WS02005192           JUNCTION      1.30     5.34     0  01:51      0.0826      0.0915       2.504
  WS02005193           JUNCTION      0.09    12.08     0  03:04       0.014       0.146       4.577
  WS02005196           JUNCTION      0.12     7.39     0  01:47      0.0183       0.121       4.924
  WS02006109           JUNCTION      0.08    12.87     0  01:40      0.0129       0.339       7.620
  WS02006110           JUNCTION      0.08    11.24     0  03:04      0.0126       0.328       8.013
  WS02006111           JUNCTION      0.24    12.64     0  03:03      0.0352       0.404       5.271
  WS02006112           JUNCTION      0.18    12.79     0  03:03      0.0263        0.41       8.439
  WS02006113           JUNCTION      1.37    12.45     0  03:03      0.0923       0.393       6.326
  WS02006115           JUNCTION      0.08    12.87     0  03:03      0.0129       0.394      10.327
  WS02006116           JUNCTION      0.24    13.06     0  03:03      0.0347       0.394       9.254
  WS02006183           JUNCTION      0.00     0.00     0  00:00           0           0       0.000 ltr
  WS02006228           JUNCTION      1.52    15.00     0  01:40       0.101       0.353       5.284
  WS02006229           JUNCTION      0.13    16.52     0  01:40      0.0193       0.279       5.850
  WS02006230           JUNCTION      0.07    18.15     0  01:40      0.0111       0.293       9.400
  WS02006231           JUNCTION      0.13    21.58     0  01:41      0.0197       0.306       4.871
  WS02006232           JUNCTION      0.92    26.63     0  01:41      0.0587       0.342       4.594
  WS02006234           JUNCTION      0.14    27.87     0  01:41      0.0208       0.338       4.181
  WS02006235           JUNCTION      0.14    28.20     0  01:41      0.0215       0.341       2.198
  WS02006238           JUNCTION      0.15    29.94     0  01:41      0.0226       0.346       2.913
  WS02006239           JUNCTION      0.11    33.17     0  01:42      0.0167       0.355       4.588
  WS02006242           JUNCTION      0.08    33.08     0  01:41      0.0124       0.382       4.933
  WS02006240           JUNCTION      0.06    32.90     0  01:42     0.00952       0.364       4.514
  WS02006243           JUNCTION      0.17    33.54     0  01:41      0.0259       0.403       4.326
  WS02006245           JUNCTION      0.07    33.53     0  01:41      0.0109       0.402       3.306
  WS02006247           JUNCTION      0.71    33.64     0  01:41      0.0546       0.432       2.610
  WS02006248           JUNCTION      0.12    37.41     0  03:00      0.0185       0.791       1.280
  WS02006249           JUNCTION      0.19    37.28     0  03:00      0.0275        0.65       2.141
  WS02006251           JUNCTION      0.36    37.09     0  03:00      0.0253        0.63       2.177
  WS02006253           JUNCTION      0.11    36.42     0  03:00      0.0166       0.625       1.031
  WS02618401           JUNCTION      0.00     0.00     0  00:00           0           0       0.000 ltr
  WSA1649              JUNCTION      0.00     0.00     0  00:00           0           0       0.000 ltr
  outfall-5            OUTFALL       0.00    31.88     0  03:00           0       0.507       0.000
  outfall-14           OUTFALL       0.00    13.11     0  03:04           0       0.321       0.000
  outfall-16           OUTFALL       0.00     0.00     0  00:00           0           0       0.000 ltr
  CC-storage           STORAGE       5.36     5.36     0  03:00       0.483       0.483     -11.129
  
  
  **********************
  Node Surcharge Summary
  **********************
  
  Surcharging occurs when water rises above the top of the highest conduit.
  ---------------------------------------------------------------------
                                               Max. Height   Min. Depth
                                   Hours       Above Crown    Below Rim
  Node                 Type      Surcharged         Meters       Meters
  ---------------------------------------------------------------------
  WS01000070           JUNCTION        3.83          0.000        0.000
  WS01000323           JUNCTION        3.83          0.000        0.000
  WS01000533           JUNCTION        3.83          0.000        2.147
  WS01005172           JUNCTION        3.83          0.000        0.000
  WS01005181           JUNCTION        3.83          0.000        0.000
  WS01009841           JUNCTION        3.83          0.000        0.000
  WS02000078           JUNCTION        3.83          0.000        0.000
  WS02000112           JUNCTION        3.83          0.000        0.000
  WS02000136           JUNCTION        3.83          0.000        0.000
  WS02004053           JUNCTION        3.83          0.000        0.000
  WS02005192           JUNCTION        0.08          0.058        2.761
  WS02005193           JUNCTION        0.11          0.101        2.516
  WS02005196           JUNCTION        0.09          0.075        2.631
  WS02006109           JUNCTION        2.16          0.909        0.929
  WS02006110           JUNCTION        2.16          0.926        0.919
  WS02006111           JUNCTION        2.16          0.938        0.939
  WS02006112           JUNCTION        2.37          1.195        0.488
  WS02006113           JUNCTION        2.16          0.932        1.001
  WS02006115           JUNCTION        2.40          1.214        1.085
  WS02006116           JUNCTION        2.50          1.273        1.077
  WS02006183           JUNCTION        3.83          0.000        0.000
  WS02006228           JUNCTION        2.16          0.882        1.349
  WS02006229           JUNCTION        2.15          0.843        1.611
  WS02006231           JUNCTION        2.14          0.741        0.802
  WS02006232           JUNCTION        2.13          0.782        0.707
  WS02006234           JUNCTION        2.13          0.491        0.766
  WS02006235           JUNCTION        2.13          0.493        0.801
  WS02006238           JUNCTION        2.13          0.485        0.949
  WS02006239           JUNCTION        2.13          0.456        0.873
  WS02006242           JUNCTION        2.10          0.407        0.442
  WS02006240           JUNCTION        2.11          0.407        0.996
  WS02006243           JUNCTION        2.02          0.352        0.428
  WS02006245           JUNCTION        1.99          0.341        0.514
  WS02006247           JUNCTION        1.97          0.245        0.515
  WS02006249           JUNCTION        0.20          0.105        0.283
  WS02006251           JUNCTION        0.13          0.108        1.402
  WS02006253           JUNCTION        0.01          0.015        2.439
  WS02618401           JUNCTION        3.83          0.000        0.000
  WSA1649              JUNCTION        3.83          0.000        0.000
  
  
  *********************
  Node Flooding Summary
  *********************
  
  Flooding refers to all water that overflows a node, whether it ponds or not.
  --------------------------------------------------------------------------
                                                             Total   Maximum
                                 Maximum   Time of Max       Flood    Ponded
                        Hours       Rate    Occurrence      Volume     Depth
  Node                 Flooded       MLD   days hr:min    10^6 ltr    Meters
  --------------------------------------------------------------------------
  CC-storage              0.04      4.90      0  02:50       0.006     0.000
  
  
  **********************
  Storage Volume Summary
  **********************
  
  --------------------------------------------------------------------------------------------------
                         Average     Avg  Evap Exfil       Maximum     Max    Time of Max    Maximum
                          Volume    Pcnt  Pcnt  Pcnt        Volume    Pcnt     Occurrence    Outflow
  Storage Unit           1000 m3    Full  Loss  Loss       1000 m3    Full    days hr:min        MLD
  --------------------------------------------------------------------------------------------------
  CC-storage               0.059      37     0     0         0.159     100       0  02:49      34.56
  
  
  ***********************
  Outfall Loading Summary
  ***********************
  
  ---------------------------------------------------------------------------------------------------------------------------------
                         Flow       Avg       Max       Total         Total         Total         Total         Total         Total
                         Freq      Flow      Flow      Volume           COD         NH3-N            TN            TP            SS
  Outfall Node           Pcnt       MLD       MLD    10^6 ltr            kg            kg            kg            kg            kg
  ---------------------------------------------------------------------------------------------------------------------------------
  outfall-5             85.39      7.38     31.88       0.507        45.561         0.000         0.000         0.000         0.000
  outfall-14            86.22      4.36     13.11       0.321        48.686         0.000         0.000         0.000         0.000
  outfall-16             0.00      0.00      0.00       0.000         0.000         0.000         0.000         0.000         0.000
  ---------------------------------------------------------------------------------------------------------------------------------
  System                57.21     11.73     43.73       0.828        94.247         0.000         0.000         0.000         0.000
  
  
  ********************
  Link Flow Summary
  ********************
  
  -----------------------------------------------------------------------------
                                 Maximum  Time of Max   Maximum    Max/    Max/
                                  |Flow|   Occurrence   |Veloc|    Full    Full
  Link                 Type          MLD  days hr:min     m/sec    Flow   Depth
  -----------------------------------------------------------------------------
  WSL2038              CONDUIT      4.80     0  03:04      0.48    0.24    1.00
  WSL2039              CONDUIT     15.82     0  03:03      1.09    0.81    1.00
  WSL2041              CONDUIT     11.99     0  03:04      0.73    0.59    1.00
  WSL2294              CONDUIT     11.16     0  03:04      0.43    0.37    1.00
  WSL2295              CONDUIT     11.24     0  03:04      0.50    0.51    1.00
  WSL2296              CONDUIT     12.64     0  03:03      0.63    0.07    1.00
  WSL2297              CONDUIT     12.79     0  03:03      0.34    0.25    1.00
  WSL2298              CONDUIT     12.45     0  03:03      0.87    0.57    1.00
  WSL2301              CONDUIT     12.87     0  03:03      0.29    0.12    1.00
  WSL2302              CONDUIT     13.06     0  03:03      0.23    0.16    1.00
  WSL2441              CONDUIT     12.79     0  01:40      0.44    0.33    1.00
  WSL2442              CONDUIT     16.39     0  01:40      0.63    0.42    1.00
  WSL2443              CONDUIT     18.08     0  01:40      0.73    0.28    1.00
  WSL2444              CONDUIT     21.45     0  01:41      0.87    0.34    1.00
  WSL2446              CONDUIT     26.25     0  01:41      1.30    0.45    1.00
  WSL2447              CONDUIT     27.73     0  01:41      1.42    1.43    1.00
  WSL2448              CONDUIT     28.06     0  01:41      1.31    0.79    1.00
  WSL2449              CONDUIT     29.79     0  01:41      1.27    1.04    1.00
  WSL2450              CONDUIT     33.06     0  01:42      1.31    0.69    1.00
  WSL2451              CONDUIT     32.84     0  01:42      1.30    2.14    1.00
  WSL2452              CONDUIT     33.00     0  01:41      1.32    0.63    1.00
  WSL2454              CONDUIT     33.36     0  01:41      1.46    0.78    1.00
  WSL2478              CONDUIT     33.45     0  01:41      1.40    1.18    1.00
  WSL2479              CONDUIT     33.31     0  01:41      1.41    0.63    1.00
  WSL2480              CONDUIT     37.31     0  03:00      1.41    1.73    1.00
  WSL2482              CONDUIT     37.13     0  03:00      1.35    0.97    1.00
  WSL2484              CONDUIT     36.74     0  03:00      1.53    0.52    1.00
  WSL2493              CONDUIT     14.66     0  01:40      0.51    0.25    1.00
  8                    CONDUIT     31.88     0  03:00      6.68    0.42    0.45
  19                   CONDUIT      0.00     0  00:00      0.00    0.00    0.00
  17                   CONDUIT     13.11     0  03:04      5.29    0.17    0.28
  CC-Pump-1            PUMP        17.28     0  03:00              1.00
  CC-Pump-2            PUMP        17.28     0  03:00              1.00
  
  
  ***************************
  Flow Classification Summary
  ***************************
  
  -------------------------------------------------------------------------------------
                      Adjusted    ---------- Fraction of Time in Flow Class ---------- 
                       /Actual         Up    Down  Sub   Sup   Up    Down  Norm  Inlet 
  Conduit               Length    Dry  Dry   Dry   Crit  Crit  Crit  Crit  Ltd   Ctrl  
  -------------------------------------------------------------------------------------
  WSL2038                 1.00   0.00  0.00  0.00  1.00  0.00  0.00  0.00  0.01  0.00
  WSL2039                 1.00   0.00  0.00  0.00  1.00  0.00  0.00  0.00  0.01  0.00
  WSL2041                 1.00   0.00  0.00  0.00  1.00  0.00  0.00  0.00  0.38  0.00
  WSL2294                 1.00   0.00  0.00  0.00  1.00  0.00  0.00  0.00  0.00  0.00
  WSL2295                 1.00   0.00  0.00  0.00  1.00  0.00  0.00  0.00  0.00  0.00
  WSL2296                 1.00   0.00  0.00  0.00  1.00  0.00  0.00  0.00  0.17  0.00
  WSL2297                 1.00   0.00  0.00  0.00  1.00  0.00  0.00  0.00  0.00  0.00
  WSL2298                 1.00   0.00  0.00  0.00  0.97  0.03  0.00  0.00  0.00  0.00
  WSL2301                 1.00   0.00  0.00  0.00  1.00  0.00  0.00  0.00  0.04  0.00
  WSL2302                 1.00   0.00  0.00  0.00  1.00  0.00  0.00  0.00  0.01  0.00
  WSL2441                 1.00   0.00  0.00  0.00  1.00  0.00  0.00  0.00  0.00  0.00
  WSL2442                 1.00   0.00  0.00  0.00  1.00  0.00  0.00  0.00  0.17  0.00
  WSL2443                 1.00   0.00  0.00  0.00  1.00  0.00  0.00  0.00  0.31  0.00
  WSL2444                 1.00   0.00  0.00  0.00  0.92  0.08  0.00  0.00  0.27  0.00
  WSL2446                 1.00   0.00  0.00  0.00  0.90  0.10  0.00  0.00  0.03  0.00
  WSL2447                 1.00   0.00  0.00  0.00  1.00  0.00  0.00  0.00  0.00  0.00
  WSL2448                 1.00   0.00  0.00  0.00  1.00  0.00  0.00  0.00  0.00  0.00
  WSL2449                 1.00   0.00  0.00  0.00  1.00  0.00  0.00  0.00  0.02  0.00
  WSL2450                 1.00   0.00  0.00  0.00  1.00  0.00  0.00  0.00  0.41  0.00
  WSL2451                 1.00   0.00  0.00  0.00  1.00  0.00  0.00  0.00  0.00  0.00
  WSL2452                 1.00   0.00  0.00  0.00  1.00  0.00  0.00  0.00  0.39  0.00
  WSL2454                 1.00   0.00  0.00  0.00  1.00  0.00  0.00  0.00  0.02  0.00
  WSL2478                 1.00   0.00  0.00  0.00  1.00  0.00  0.00  0.00  0.00  0.00
  WSL2479                 1.00   0.00  0.00  0.00  1.00  0.00  0.00  0.00  0.40  0.00
  WSL2480                 1.00   0.00  0.00  0.00  1.00  0.00  0.00  0.00  0.00  0.00
  WSL2482                 1.00   0.00  0.00  0.00  1.00  0.00  0.00  0.00  0.40  0.00
  WSL2484                 1.00   0.00  0.00  0.00  1.00  0.00  0.00  0.00  0.39  0.00
  WSL2493                 1.00   0.00  0.00  0.00  1.00  0.00  0.00  0.00  0.05  0.00
  8                       1.00   0.15  0.00  0.00  0.00  0.85  0.00  0.00  0.07  0.00
  19                      1.00   1.00  0.00  0.00  0.00  0.00  0.00  0.00  0.00  0.00
  17                      1.00   0.14  0.00  0.00  0.00  0.86  0.00  0.00  0.03  0.00
  
  
  *************************
  Conduit Surcharge Summary
  *************************
  
  ----------------------------------------------------------------------------
                                                           Hours        Hours 
                         --------- Hours Full --------   Above Full   Capacity
  Conduit                Both Ends  Upstream  Dnstream   Normal Flow   Limited
  ----------------------------------------------------------------------------
  WSL2038                     0.08      0.08      0.09      0.01         0.01
  WSL2039                     0.11      0.11      0.12      0.01         0.01
  WSL2041                     0.09      0.09      0.11      0.01         0.01
  WSL2294                     2.16      2.16      2.16      0.01         0.01
  WSL2295                     2.16      2.16      2.16      0.01         0.02
  WSL2296                     2.16      2.16      2.74      0.01         0.01
  WSL2297                     2.37      2.37      2.40      0.01         0.01
  WSL2298                     2.16      2.16      2.16      0.01         0.03
  WSL2301                     2.40      2.40      2.50      0.01         0.01
  WSL2302                     2.50      2.50      2.58      0.01         0.01
  WSL2441                     2.16      2.16      2.16      0.01         0.01
  WSL2442                     2.15      2.15      2.16      0.01         0.01
  WSL2443                     2.14      2.14      2.15      0.01         0.01
  WSL2444                     2.13      2.13      2.14      0.01         0.01
  WSL2446                     2.13      2.13      2.13      0.01         0.01
  WSL2447                     2.13      2.13      2.13      0.03         0.02
  WSL2448                     2.13      2.13      2.13      0.01         0.01
  WSL2449                     2.13      2.13      2.13      0.01         0.01
  WSL2450                     2.11      2.11      2.13      0.01         0.01
  WSL2451                     2.10      2.10      2.11      0.08         0.03
  WSL2452                     2.02      2.02      2.10      0.01         0.01
  WSL2454                     1.99      1.99      2.02      0.01         0.01
  WSL2478                     1.97      1.97      1.99      0.04         0.01
  WSL2479                     0.21      0.21      1.97      0.01         0.01
  WSL2480                     0.20      0.20      0.21      0.21         0.16
  WSL2482                     0.13      0.13      0.20      0.01         0.01
  WSL2484                     0.01      0.01      0.13      0.01         0.01
  WSL2493                     2.15      2.15      2.16      0.01         0.01
  
  
  ***************
  Pumping Summary
  ***************
  
  ---------------------------------------------------------------------------------------------------------
                                                  Min       Avg       Max     Total     Power    % Time Off
                        Percent   Number of      Flow      Flow      Flow    Volume     Usage    Pump Curve
  Pump                 Utilized   Start-Ups       MLD       MLD       MLD  10^6 ltr     Kw-hr    Low   High
  ---------------------------------------------------------------------------------------------------------
  CC-Pump-1               21.72           2      0.00      7.77     17.28     0.237      2.02    0.0    0.0
  CC-Pump-2               21.72           2      0.00      7.77     17.28     0.237      2.02    0.0    0.0
  
  
  ***************************
  Link Pollutant Load Summary
  ***************************
  
  ------------------------------------------------------------------------------------------
                                 COD         NH3-N            TN            TP            SS
  Link                            kg            kg            kg            kg            kg
  ------------------------------------------------------------------------------------------
  WSL2038                      7.883         0.000         0.000         0.000         0.000
  WSL2039                     14.840         0.000         0.000         0.000         0.000
  WSL2041                     11.429         0.000         0.000         0.000         0.000
  WSL2294                     57.662         0.000         0.000         0.000         0.000
  WSL2295                     55.423         0.000         0.000         0.000         0.000
  WSL2296                     59.881         0.000         0.000         0.000         0.000
  WSL2297                     58.107         0.000         0.000         0.000         0.000
  WSL2298                     56.189         0.000         0.000         0.000         0.000
  WSL2301                     55.694         0.000         0.000         0.000         0.000
  WSL2302                     54.995         0.000         0.000         0.000         0.000
  WSL2441                     59.245         0.000         0.000         0.000         0.000
  WSL2442                     38.142         0.000         0.000         0.000         0.000
  WSL2443                     40.527         0.000         0.000         0.000         0.000
  WSL2444                     40.959         0.000         0.000         0.000         0.000
  WSL2446                     44.013         0.000         0.000         0.000         0.000
  WSL2447                     47.704         0.000         0.000         0.000         0.000
  WSL2448                     48.979         0.000         0.000         0.000         0.000
  WSL2449                     50.272         0.000         0.000         0.000         0.000
  WSL2450                     52.592         0.000         0.000         0.000         0.000
  WSL2451                     54.746         0.000         0.000         0.000         0.000
  WSL2452                     56.475         0.000         0.000         0.000         0.000
  WSL2454                     56.833         0.000         0.000         0.000         0.000
  WSL2478                     55.633         0.000         0.000         0.000         0.000
  WSL2479                     53.982         0.000         0.000         0.000         0.000
  WSL2480                     65.518         0.000         0.000         0.000         0.000
  WSL2482                     60.479         0.000         0.000         0.000         0.000
  WSL2484                     56.897         0.000         0.000         0.000         0.000
  WSL2493                     38.518         0.000         0.000         0.000         0.000
  8                           45.561         0.000         0.000         0.000         0.000
  19                           0.000         0.000         0.000         0.000         0.000
  17                          48.686         0.000         0.000         0.000         0.000
  CC-Pump-1                   20.912         0.000         0.000         0.000         0.000
  CC-Pump-2                   20.912         0.000         0.000         0.000         0.000
  

  Analysis begun on:  Mon Aug 19 11:18:37 2019
  Analysis ended on:  Mon Aug 19 11:18:37 2019
  Total elapsed time: < 1 sec