
  EPA STORM WATER MANAGEMENT MODEL - VERSION 5.1 (Build 5.2.0.dev5)
  --------------------------------------------------------------

  
  *********************************************************
  NOTE: The summary statistics displayed in this report are
  based on results found at every computational time step,  
  not just on results from each reporting time step.
  *********************************************************
  
  ****************
  Analysis Options
  ****************
  Flow Units ............... MLD
  Process Models:
    Rainfall/Runoff ........ YES
    RDII ................... NO
    Snowmelt ............... NO
    Groundwater ............ NO
    Flow Routing ........... YES
    Ponding Allowed ........ NO
    Water Quality .......... YES
  Infiltration Method ...... GREEN_AMPT
  Flow Routing Method ...... DYNWAVE
  Surcharge Method ......... EXTRAN
  Starting Date ............ 08/28/2015 08:00:00
  Ending Date .............. 08/28/2015 11:50:00
  Antecedent Dry Days ...... 4.0
  Report Time Step ......... 00:01:00
  Wet Time Step ............ 00:01:00
  Dry Time Step ............ 00:01:00
  Routing Time Step ........ 5.00 sec
  Variable Time Step ....... YES
  Maximum Trials ........... 8
  Number of Threads ........ 1
  Head Tolerance ........... 0.001500 m
  
  
  **************************        Volume         Depth
  Runoff Quantity Continuity     hectare-m            mm
  **************************     ---------       -------
  Total Precipitation ......         0.874        14.121
  Evaporation Loss .........         0.000         0.000
  Infiltration Loss ........         0.437         7.072
  Surface Runoff ...........         0.168         2.720
  Final Storage ............         0.268         4.331
  Continuity Error (%) .....        -0.007
  
  
  **************************           COD         NH3-N            TN            TP            SS
  Runoff Quality Continuity             kg            kg            kg            kg            kg
  **************************    ----------    ----------    ----------    ----------    ----------
  Initial Buildup ..........      2504.640         0.000         0.000         0.000         0.000
  Surface Buildup ..........        19.767         0.000         0.000         0.000         0.000
  Wet Deposition ...........         0.000         0.000         0.000         0.000         0.000
  Sweeping Removal .........         0.000         0.000         0.000         0.000         0.000
  Infiltration Loss ........        55.262         0.000         0.000         0.000         0.000
  BMP Removal ..............         0.000         0.000         0.000         0.000         0.000
  Surface Runoff ...........       198.236         0.000         0.000         0.000         0.000
  Remaining Buildup ........      2270.133         0.000         0.000         0.000         0.000
  Continuity Error (%) .....         0.031         0.000         0.000         0.000         0.000
  
  
  **************************        Volume        Volume
  Flow Routing Continuity        hectare-m      10^6 ltr
  **************************     ---------     ---------
  Dry Weather Inflow .......         0.000         0.000
  Wet Weather Inflow .......         0.168         1.679
  Groundwater Inflow .......         0.000         0.000
  RDII Inflow ..............         0.000         0.000
  External Inflow ..........         0.082         0.822
  External Outflow .........         0.207         2.071
  Flooding Loss ............         0.008         0.078
  Evaporation Loss .........         0.000         0.000
  Exfiltration Loss ........         0.000         0.000
  Initial Stored Volume ....         0.000         0.000
  Final Stored Volume ......         0.046         0.463
  Continuity Error (%) .....        -4.462
  
  
  **************************           COD         NH3-N            TN            TP            SS
  Quality Routing Continuity            kg            kg            kg            kg            kg
  **************************    ----------    ----------    ----------    ----------    ----------
  Dry Weather Inflow .......         0.000         0.000         0.000         0.000         0.000
  Wet Weather Inflow .......       197.810         0.000         0.000         0.000         0.000
  Groundwater Inflow .......         0.000         0.000         0.000         0.000         0.000
  RDII Inflow ..............         0.000         0.000         0.000         0.000         0.000
  External Inflow ..........       137.264         0.000         0.000         0.000         0.000
  External Outflow .........       242.343         0.000         0.000         0.000         0.000
  Flooding Loss ............        11.181         0.000         0.000         0.000         0.000
  Exfiltration Loss ........         0.000         0.000         0.000         0.000         0.000
  Mass Reacted .............         0.000         0.000         0.000         0.000         0.000
  Initial Stored Mass ......         0.000         0.000         0.000         0.000         0.000
  Final Stored Mass ........        59.748         0.000         0.000         0.000         0.000
  Continuity Error (%) .....         6.507         0.000         0.000         0.000         0.000
  
  
  *************************
  Highest Continuity Errors
  *************************
  Node WS02006230 (6.19%)
  Node WS02006115 (4.12%)
  Node WS02006242 (3.93%)
  Node WS02006229 (3.86%)
  Node WS02006116 (3.73%)
  
  
  ***************************
  Time-Step Critical Elements
  ***************************
  Link 8 (79.22%)
  Link 17 (10.55%)
  Link WSL2448 (8.48%)
  
  
  ********************************
  Highest Flow Instability Indexes
  ********************************
  Link WSL2301 (4)
  Link WSL2297 (4)
  Link WSL2302 (4)
  Link WSL2296 (3)
  Link WSL2493 (3)
  
  
  *************************
  Routing Time Step Summary
  *************************
  Minimum Time Step           :     0.09 sec
  Average Time Step           :     1.01 sec
  Maximum Time Step           :     5.00 sec
  Percent in Steady State     :    -0.00
  Average Iterations per Step :     2.21
  Percent Not Converging      :     2.25
  
  
  ***************************
  Subcatchment Runoff Summary
  ***************************
  
  ------------------------------------------------------------------------------------------------------------------------------
                            Total      Total      Total      Total     Imperv       Perv      Total       Total     Peak  Runoff
                           Precip      Runon       Evap      Infil     Runoff     Runoff     Runoff      Runoff   Runoff   Coeff
  Subcatchment                 mm         mm         mm         mm         mm         mm         mm    10^6 ltr      MLD
  ------------------------------------------------------------------------------------------------------------------------------
  1                         14.12      13.20       0.00       8.20       6.45       4.56      11.01        0.13     2.50   0.403
  2                         14.12       0.00       0.00       6.77       3.32       0.83       4.15        0.14     2.65   0.294
  3                         14.12       0.00       0.00       6.79       3.27       0.69       3.96        0.20     3.80   0.280
  35                        14.12       0.00       0.00       6.76       3.33       0.87       4.20        0.13     2.42   0.297
  36                        14.12       7.98       0.00       7.91       5.02       1.71       6.73        0.40     7.34   0.304
  40                        14.12       2.19       0.00       7.12       3.80       1.09       4.88        0.19     3.60   0.299
  41                        14.12       0.00       0.00       6.73       3.38       1.04       4.42        0.09     1.65   0.313
  42                        14.12       0.00       0.00       6.75       3.36       0.98       4.34        0.10     1.90   0.307
  43                        14.12       0.00       0.00       6.56       3.47       1.95       5.43        0.02     0.40   0.384
  44                        14.12     112.05       0.00      12.84      30.70      59.54      90.24        0.33     6.15   0.715
  45                        14.12       0.00       0.00       6.68       3.42       1.34       4.76        0.05     0.97   0.337
  46                        14.12       6.69       0.00       7.65       4.90       2.31       7.21        0.15     2.93   0.346
  47                        14.12       0.00       0.00       6.69       3.42       1.30       4.72        0.05     1.03   0.334
  48                        14.12       3.31       0.00       7.20       4.16       1.82       5.98        0.09     1.83   0.343
  55                        14.12       4.93       0.00       7.32       4.60       2.78       7.37        0.06     1.20   0.387
  56                        14.12       7.37       0.00       7.73       5.05       2.44       7.50        0.16     3.04   0.349
  57                        14.12       0.00       0.00       6.79       3.27       0.70       3.97        0.20     3.73   0.281
  59                        14.12       0.00       0.00       6.66       3.44       1.45       4.88        0.04     0.82   0.346
  60                        14.12      10.77       0.00       7.88       6.03       5.37      11.40        0.06     1.17   0.458
  61                        14.12       0.00       0.00       6.84       3.02       0.39       3.41        0.61    11.39   0.242
  64                        14.12       0.00       0.00       6.70       3.41       1.26       4.68        0.06     1.10   0.331
  
  
  ****************************
  Subcatchment Washoff Summary
  ****************************
  
  ------------------------------------------------------------------------------------------
                                 COD         NH3-N            TN            TP            SS
  Subcatchment                    kg            kg            kg            kg            kg
  ------------------------------------------------------------------------------------------
  1                           14.342         0.000         0.000         0.000         0.000
  2                            0.000         0.000         0.000         0.000         0.000
  3                            0.000         0.000         0.000         0.000         0.000
  35                          15.292         0.000         0.000         0.000         0.000
  36                          90.683         0.000         0.000         0.000         0.000
  40                          28.853         0.000         0.000         0.000         0.000
  41                          10.738         0.000         0.000         0.000         0.000
  42                          12.201         0.000         0.000         0.000         0.000
  43                           2.915         0.000         0.000         0.000         0.000
  44                          84.931         0.000         0.000         0.000         0.000
  45                           6.539         0.000         0.000         0.000         0.000
  46                          35.321         0.000         0.000         0.000         0.000
  47                           6.931         0.000         0.000         0.000         0.000
  48                          17.139         0.000         0.000         0.000         0.000
  55                          13.264         0.000         0.000         0.000         0.000
  56                          38.975         0.000         0.000         0.000         0.000
  57                          22.807         0.000         0.000         0.000         0.000
  59                           5.582         0.000         0.000         0.000         0.000
  60                          16.812         0.000         0.000         0.000         0.000
  61                          62.893         0.000         0.000         0.000         0.000
  64                           7.365         0.000         0.000         0.000         0.000
  ------------------------------------------------------------------------------------------
  System                     493.583         0.000         0.000         0.000         0.000
  
  
  ******************
  Node Depth Summary
  ******************
  
  ---------------------------------------------------------------------------------
                                 Average  Maximum  Maximum  Time of Max    Reported
                                   Depth    Depth      HGL   Occurrence   Max Depth
  Node                 Type       Meters   Meters   Meters  days hr:min      Meters
  ---------------------------------------------------------------------------------
  WS01000070           JUNCTION     0.00     0.00     0.00     0  00:00        0.00
  WS01000323           JUNCTION     0.00     0.00     0.00     0  00:00        0.00
  WS01000533           JUNCTION     0.00     0.00     6.86     0  00:00        0.00
  WS01005172           JUNCTION     0.00     0.00     0.00     0  00:00        0.00
  WS01005181           JUNCTION     0.00     0.00     0.00     0  00:00        0.00
  WS01009841           JUNCTION     0.00     0.00     0.00     0  00:00        0.00
  WS02000078           JUNCTION     0.00     0.00     0.00     0  00:00        0.00
  WS02000112           JUNCTION     0.00     0.00     0.00     0  00:00        0.00
  WS02000136           JUNCTION     0.00     0.00     0.00     0  00:00        0.00
  WS02004053           JUNCTION     0.00     0.00     0.00     0  00:00        0.00
  WS02004401           JUNCTION     2.15     2.33     8.33     0  02:35        2.33
  WS02005192           JUNCTION     0.43     0.67     8.54     0  02:30        0.66
  WS02005193           JUNCTION     0.47     0.71     8.53     0  02:30        0.71
  WS02005196           JUNCTION     0.44     0.69     8.54     0  02:30        0.68
  WS02006109           JUNCTION     1.55     1.80     8.42     0  01:42        1.73
  WS02006110           JUNCTION     1.57     1.80     8.40     0  01:42        1.75
  WS02006111           JUNCTION     1.58     1.80     8.38     0  01:41        1.76
  WS02006112           JUNCTION     2.03     2.24     8.36     0  01:41        2.21
  WS02006113           JUNCTION     1.58     1.81     8.40     0  01:41        1.75
  WS02006115           JUNCTION     2.05     2.24     8.34     0  01:42        2.23
  WS02006116           JUNCTION     2.11     2.30     8.34     0  02:36        2.29
  WS02006183           JUNCTION     0.00     0.00     0.00     0  00:00        0.00
  WS02006228           JUNCTION     1.52     1.78     8.43     0  01:42        1.70
  WS02006229           JUNCTION     1.48     1.75     8.44     0  01:42        1.67
  WS02006230           JUNCTION     1.43     1.71     8.46     0  01:42        1.61
  WS02006231           JUNCTION     1.28     1.55     8.45     0  01:42        1.46
  WS02006232           JUNCTION     1.16     1.44     8.47     0  01:42        1.33
  WS02006234           JUNCTION     1.05     1.34     8.50     0  01:42        1.21
  WS02006235           JUNCTION     1.04     1.34     8.51     0  01:42        1.20
  WS02006238           JUNCTION     1.03     1.33     8.51     0  01:42        1.19
  WS02006239           JUNCTION     1.00     1.30     8.51     0  01:42        1.16
  WS02006242           JUNCTION     0.92     1.30     8.60     0  01:42        1.08
  WS02006240           JUNCTION     0.93     1.28     8.57     0  01:42        1.08
  WS02006243           JUNCTION     0.81     1.21     8.63     0  01:41        0.96
  WS02006245           JUNCTION     0.75     1.27     8.76     0  01:42        0.89
  WS02006247           JUNCTION     0.73     1.06     8.57     0  01:42        0.87
  WS02006248           JUNCTION     0.66     0.79     8.38     0  02:30        0.79
  WS02006249           JUNCTION     0.66     1.09     8.69     0  01:42        0.82
  WS02006251           JUNCTION     0.60     0.88     8.55     0  02:37        0.82
  WS02006253           JUNCTION     0.49     0.73     8.53     0  02:30        0.73
  WS02618401           JUNCTION     0.00     0.00     0.00     0  00:00        0.00
  WSA1649              JUNCTION     0.00     0.00     0.00     0  00:00        0.00
  outfall-5            OUTFALL      0.11     0.19     7.86     0  02:30        0.19
  outfall-14           OUTFALL      0.09     0.13     7.79     0  02:35        0.13
  outfall-16           OUTFALL      0.00     0.00     8.39     0  00:00        0.00
  CC-storage           STORAGE      2.42     5.63     8.81     0  02:22        5.63
  
  
  *******************
  Node Inflow Summary
  *******************
  
  -------------------------------------------------------------------------------------------------
                                  Maximum  Maximum                  Lateral       Total        Flow
                                  Lateral    Total  Time of Max      Inflow      Inflow     Balance
                                   Inflow   Inflow   Occurrence      Volume      Volume       Error
  Node                 Type           MLD      MLD  days hr:min    10^6 ltr    10^6 ltr     Percent
  -------------------------------------------------------------------------------------------------
  WS01000070           JUNCTION      0.00     0.00     0  00:00           0           0       0.000 ltr
  WS01000323           JUNCTION      0.00     0.00     0  00:00           0           0       0.000 ltr
  WS01000533           JUNCTION      0.00     0.00     0  00:00           0           0       0.000 ltr
  WS01005172           JUNCTION      0.00     0.00     0  00:00           0           0       0.000 ltr
  WS01005181           JUNCTION      0.00     0.00     0  00:00           0           0       0.000 ltr
  WS01009841           JUNCTION      0.00     0.00     0  00:00           0           0       0.000 ltr
  WS02000078           JUNCTION      0.00     0.00     0  00:00           0           0       0.000 ltr
  WS02000112           JUNCTION      0.00     0.00     0  00:00           0           0       0.000 ltr
  WS02000136           JUNCTION      0.00     0.00     0  00:00           0           0       0.000 ltr
  WS02004053           JUNCTION      0.00     0.00     0  00:00           0           0       0.000 ltr
  WS02004401           JUNCTION      0.05    16.89     0  02:35      0.0086        0.87       3.369
  WS02005192           JUNCTION      3.82     5.21     0  01:43       0.215       0.217       1.173
  WS02005193           JUNCTION      0.09    11.75     0  03:34       0.014       0.253       2.954
  WS02005196           JUNCTION      0.12     7.36     0  01:43      0.0183       0.239       2.794
  WS02006109           JUNCTION      0.08    13.25     0  02:35      0.0129       0.704       3.532
  WS02006110           JUNCTION      0.08    13.33     0  02:35      0.0126       0.695       3.625
  WS02006111           JUNCTION      0.24    16.39     0  02:35      0.0352       0.908       2.290
  WS02006112           JUNCTION      0.18    16.55     0  02:35      0.0263       0.916       3.653
  WS02006113           JUNCTION      3.94    16.19     0  02:35       0.227       0.897       2.683
  WS02006115           JUNCTION      0.08    16.63     0  02:35      0.0129         0.9       4.298
  WS02006116           JUNCTION      0.24    16.84     0  02:35      0.0347       0.902       3.874
  WS02006183           JUNCTION      0.00     0.00     0  00:00           0           0       0.000 ltr
  WS02006228           JUNCTION      6.31    13.17     0  02:35        0.36       0.727       2.483
  WS02006229           JUNCTION      0.13    11.39     0  01:43      0.0193       0.403       4.015
  WS02006230           JUNCTION      0.07    13.03     0  01:41      0.0111       0.413       6.596
  WS02006231           JUNCTION      0.13    12.92     0  01:41      0.0197       0.421       3.601
  WS02006232           JUNCTION      2.73    15.21     0  01:39       0.153       0.493       3.139
  WS02006234           JUNCTION      0.14    18.64     0  01:39      0.0208       0.433       3.280
  WS02006235           JUNCTION      0.14    20.19     0  01:39      0.0215       0.431       1.800
  WS02006238           JUNCTION      0.15    22.42     0  01:39      0.0226       0.432       2.362
  WS02006239           JUNCTION      0.11    26.50     0  01:40      0.0167       0.435       3.283
  WS02006242           JUNCTION      0.08    33.95     0  01:40      0.0124       0.455       4.090
  WS02006240           JUNCTION      0.06    29.43     0  01:40     0.00952       0.441       3.692
  WS02006243           JUNCTION      0.17    34.00     0  01:41      0.0259        0.47       3.632
  WS02006245           JUNCTION      0.07    35.15     0  01:41      0.0109       0.467       2.769
  WS02006247           JUNCTION      2.64    35.77     0  01:41       0.157       0.555       2.028
  WS02006248           JUNCTION      0.12    38.82     0  02:30      0.0185        1.51       0.701
  WS02006249           JUNCTION      0.19    38.70     0  02:30      0.0275        1.28       1.134
  WS02006251           JUNCTION      1.26    38.51     0  02:30      0.0705        1.26       1.165
  WS02006253           JUNCTION      0.11    37.69     0  02:30      0.0166        1.21       0.597
  WS02618401           JUNCTION      0.00     0.00     0  00:00           0           0       0.000 ltr
  WSA1649              JUNCTION      0.00     0.00     0  00:00           0           0       0.000 ltr
  outfall-5            OUTFALL       0.00    35.52     0  02:30           0        1.24       0.000
  outfall-14           OUTFALL       0.00    16.89     0  02:35           0       0.836       0.000
  outfall-16           OUTFALL       0.00     0.00     0  00:00           0           0       0.000 ltr
  CC-storage           STORAGE      12.85    12.85     0  03:01        0.89        0.89     -13.784
  
  
  **********************
  Node Surcharge Summary
  **********************
  
  Surcharging occurs when water rises above the top of the highest conduit.
  ---------------------------------------------------------------------
                                               Max. Height   Min. Depth
                                   Hours       Above Crown    Below Rim
  Node                 Type      Surcharged         Meters       Meters
  ---------------------------------------------------------------------
  WS01000070           JUNCTION        3.83          0.000        0.000
  WS01000323           JUNCTION        3.83          0.000        0.000
  WS01000533           JUNCTION        3.83          0.000        2.147
  WS01005172           JUNCTION        3.83          0.000        0.000
  WS01005181           JUNCTION        3.83          0.000        0.000
  WS01009841           JUNCTION        3.83          0.000        0.000
  WS02000078           JUNCTION        3.83          0.000        0.000
  WS02000112           JUNCTION        3.83          0.000        0.000
  WS02000136           JUNCTION        3.83          0.000        0.000
  WS02004053           JUNCTION        3.83          0.000        0.000
  WS02005192           JUNCTION        0.22          0.073        2.746
  WS02005193           JUNCTION        0.27          0.114        2.503
  WS02005196           JUNCTION        0.24          0.090        2.616
  WS02006109           JUNCTION        2.19          0.996        0.842
  WS02006110           JUNCTION        2.20          0.999        0.846
  WS02006111           JUNCTION        2.20          1.001        0.876
  WS02006112           JUNCTION        2.42          1.240        0.443
  WS02006113           JUNCTION        2.20          1.005        0.928
  WS02006115           JUNCTION        2.45          1.240        1.059
  WS02006116           JUNCTION        2.53          1.297        1.053
  WS02006183           JUNCTION        3.83          0.000        0.000
  WS02006228           JUNCTION        2.19          0.982        1.249
  WS02006229           JUNCTION        2.19          0.954        1.500
  WS02006231           JUNCTION        2.18          0.849        0.694
  WS02006232           JUNCTION        2.17          0.741        0.748
  WS02006234           JUNCTION        2.16          0.641        0.616
  WS02006235           JUNCTION        2.16          0.642        0.652
  WS02006238           JUNCTION        2.16          0.628        0.806
  WS02006239           JUNCTION        2.15          0.596        0.733
  WS02006242           JUNCTION        2.15          0.599        0.250
  WS02006240           JUNCTION        2.15          0.584        0.819
  WS02006243           JUNCTION        2.15          0.511        0.269
  WS02006245           JUNCTION        2.14          0.572        0.283
  WS02006247           JUNCTION        2.14          0.363        0.397
  WS02006249           JUNCTION        0.78          0.388        0.000
  WS02006251           JUNCTION        0.43          0.178        1.332
  WS02006253           JUNCTION        0.13          0.034        2.420
  WS02618401           JUNCTION        3.83          0.000        0.000
  WSA1649              JUNCTION        3.83          0.000        0.000
  
  
  *********************
  Node Flooding Summary
  *********************
  
  Flooding refers to all water that overflows a node, whether it ponds or not.
  --------------------------------------------------------------------------
                                                             Total   Maximum
                                 Maximum   Time of Max       Flood    Ponded
                        Hours       Rate    Occurrence      Volume     Depth
  Node                 Flooded       MLD   days hr:min    10^6 ltr    Meters
  --------------------------------------------------------------------------
  WS02006249              0.01      9.95      0  01:42       0.000     0.000
  CC-storage              0.24     10.19      0  03:07       0.078     0.000
  
  
  **********************
  Storage Volume Summary
  **********************
  
  --------------------------------------------------------------------------------------------------
                         Average     Avg  Evap Exfil       Maximum     Max    Time of Max    Maximum
                          Volume    Pcnt  Pcnt  Pcnt        Volume    Pcnt     Occurrence    Outflow
  Storage Unit           1000 m3    Full  Loss  Loss       1000 m3    Full    days hr:min        MLD
  --------------------------------------------------------------------------------------------------
  CC-storage               0.068      43     0     0         0.159     100       0  02:22      34.56
  
  
  ***********************
  Outfall Loading Summary
  ***********************
  
  ---------------------------------------------------------------------------------------------------------------------------------
                         Flow       Avg       Max       Total         Total         Total         Total         Total         Total
                         Freq      Flow      Flow      Volume           COD         NH3-N            TN            TP            SS
  Outfall Node           Pcnt       MLD       MLD    10^6 ltr            kg            kg            kg            kg            kg
  ---------------------------------------------------------------------------------------------------------------------------------
  outfall-5             90.16     15.07     35.52       1.235       125.553         0.000         0.000         0.000         0.000
  outfall-14            90.19      9.84     16.89       0.836       116.800         0.000         0.000         0.000         0.000
  outfall-16             0.00      0.00      0.00       0.000         0.000         0.000         0.000         0.000         0.000
  ---------------------------------------------------------------------------------------------------------------------------------
  System                60.12     24.91     50.94       2.071       242.354         0.000         0.000         0.000         0.000
  
  
  ********************
  Link Flow Summary
  ********************
  
  -----------------------------------------------------------------------------
                                 Maximum  Time of Max   Maximum    Max/    Max/
                                  |Flow|   Occurrence   |Veloc|    Full    Full
  Link                 Type          MLD  days hr:min     m/sec    Flow   Depth
  -----------------------------------------------------------------------------
  WSL2038              CONDUIT      5.47     0  01:45      0.42    0.27    1.00
  WSL2039              CONDUIT     15.46     0  03:34      0.73    0.80    1.00
  WSL2041              CONDUIT     11.67     0  03:34      0.60    0.57    1.00
  WSL2294              CONDUIT     13.25     0  02:35      0.43    0.45    1.00
  WSL2295              CONDUIT     13.33     0  02:35      0.50    0.60    1.00
  WSL2296              CONDUIT     16.40     0  02:35      0.63    0.09    1.00
  WSL2297              CONDUIT     16.55     0  02:35      0.34    0.32    1.00
  WSL2298              CONDUIT     16.19     0  02:35      0.87    0.74    1.00
  WSL2301              CONDUIT     16.63     0  02:35      0.29    0.15    1.00
  WSL2302              CONDUIT     16.84     0  02:35      0.25    0.21    1.00
  WSL2441              CONDUIT     13.17     0  02:35      0.44    0.34    1.00
  WSL2442              CONDUIT     11.26     0  01:43      0.63    0.29    1.00
  WSL2443              CONDUIT     12.95     0  01:41      0.73    0.20    1.00
  WSL2444              CONDUIT     12.78     0  01:41      0.89    0.20    1.00
  WSL2446              CONDUIT     14.25     0  01:39      0.85    0.24    1.00
  WSL2447              CONDUIT     18.50     0  01:39      0.99    0.95    1.00
  WSL2448              CONDUIT     20.04     0  01:39      1.01    0.56    1.00
  WSL2449              CONDUIT     22.26     0  01:39      1.06    0.78    1.00
  WSL2450              CONDUIT     25.85     0  01:40      1.18    0.54    1.00
  WSL2451              CONDUIT     29.37     0  01:40      1.22    1.92    1.00
  WSL2452              CONDUIT     33.87     0  01:40      1.30    0.65    1.00
  WSL2454              CONDUIT     33.82     0  01:41      1.46    0.79    1.00
  WSL2478              CONDUIT     35.08     0  01:41      1.41    1.24    1.00
  WSL2479              CONDUIT     35.06     0  01:41      1.41    0.67    1.00
  WSL2480              CONDUIT     38.71     0  02:30      1.42    1.79    1.00
  WSL2482              CONDUIT     38.53     0  02:30      1.36    1.00    1.00
  WSL2484              CONDUIT     37.74     0  02:30      1.51    0.53    1.00
  WSL2493              CONDUIT     11.40     0  01:43      0.51    0.19    1.00
  8                    CONDUIT     35.52     0  02:30      6.87    0.47    0.48
  19                   CONDUIT      0.00     0  00:00      0.00    0.00    0.00
  17                   CONDUIT     16.89     0  02:35      5.68    0.22    0.32
  CC-Pump-1            PUMP        17.28     0  02:30              1.00
  CC-Pump-2            PUMP        17.28     0  02:30              1.00
  
  
  ***************************
  Flow Classification Summary
  ***************************
  
  -------------------------------------------------------------------------------------
                      Adjusted    ---------- Fraction of Time in Flow Class ---------- 
                       /Actual         Up    Down  Sub   Sup   Up    Down  Norm  Inlet 
  Conduit               Length    Dry  Dry   Dry   Crit  Crit  Crit  Crit  Ltd   Ctrl  
  -------------------------------------------------------------------------------------
  WSL2038                 1.00   0.00  0.00  0.00  1.00  0.00  0.00  0.00  0.01  0.00
  WSL2039                 1.00   0.00  0.00  0.00  1.00  0.00  0.00  0.00  0.00  0.00
  WSL2041                 1.00   0.00  0.00  0.00  1.00  0.00  0.00  0.00  0.32  0.00
  WSL2294                 1.00   0.00  0.00  0.00  1.00  0.00  0.00  0.00  0.00  0.00
  WSL2295                 1.00   0.00  0.00  0.00  1.00  0.00  0.00  0.00  0.00  0.00
  WSL2296                 1.00   0.00  0.00  0.00  1.00  0.00  0.00  0.00  0.17  0.00
  WSL2297                 1.00   0.00  0.00  0.00  1.00  0.00  0.00  0.00  0.00  0.00
  WSL2298                 1.00   0.00  0.00  0.00  0.98  0.02  0.00  0.00  0.00  0.00
  WSL2301                 1.00   0.00  0.00  0.00  1.00  0.00  0.00  0.00  0.04  0.00
  WSL2302                 1.00   0.00  0.00  0.00  1.00  0.00  0.00  0.00  0.01  0.00
  WSL2441                 1.00   0.00  0.00  0.00  1.00  0.00  0.00  0.00  0.00  0.00
  WSL2442                 1.00   0.00  0.00  0.00  1.00  0.00  0.00  0.00  0.17  0.00
  WSL2443                 1.00   0.00  0.00  0.00  1.00  0.00  0.00  0.00  0.31  0.00
  WSL2444                 1.00   0.00  0.00  0.00  0.94  0.06  0.00  0.00  0.24  0.00
  WSL2446                 1.00   0.00  0.00  0.00  0.93  0.07  0.00  0.00  0.03  0.00
  WSL2447                 1.00   0.00  0.00  0.00  1.00  0.00  0.00  0.00  0.00  0.00
  WSL2448                 1.00   0.00  0.00  0.00  1.00  0.00  0.00  0.00  0.00  0.00
  WSL2449                 1.00   0.00  0.00  0.00  1.00  0.00  0.00  0.00  0.02  0.00
  WSL2450                 1.00   0.00  0.00  0.00  1.00  0.00  0.00  0.00  0.41  0.00
  WSL2451                 1.00   0.00  0.00  0.00  1.00  0.00  0.00  0.00  0.00  0.00
  WSL2452                 1.00   0.00  0.00  0.00  1.00  0.00  0.00  0.00  0.39  0.00
  WSL2454                 1.00   0.00  0.00  0.00  1.00  0.00  0.00  0.00  0.01  0.00
  WSL2478                 1.00   0.00  0.00  0.00  1.00  0.00  0.00  0.00  0.00  0.00
  WSL2479                 1.00   0.00  0.00  0.00  1.00  0.00  0.00  0.00  0.40  0.00
  WSL2480                 1.00   0.00  0.00  0.00  1.00  0.00  0.00  0.00  0.00  0.00
  WSL2482                 1.00   0.00  0.00  0.00  1.00  0.00  0.00  0.00  0.39  0.00
  WSL2484                 1.00   0.00  0.00  0.00  1.00  0.00  0.00  0.00  0.38  0.00
  WSL2493                 1.00   0.00  0.00  0.00  1.00  0.00  0.00  0.00  0.05  0.00
  8                       1.00   0.10  0.00  0.00  0.00  0.90  0.00  0.00  0.11  0.00
  19                      1.00   1.00  0.00  0.00  0.00  0.00  0.00  0.00  0.00  0.00
  17                      1.00   0.10  0.00  0.00  0.00  0.90  0.00  0.00  0.05  0.00
  
  
  *************************
  Conduit Surcharge Summary
  *************************
  
  ----------------------------------------------------------------------------
                                                           Hours        Hours 
                         --------- Hours Full --------   Above Full   Capacity
  Conduit                Both Ends  Upstream  Dnstream   Normal Flow   Limited
  ----------------------------------------------------------------------------
  WSL2038                     0.22      0.22      0.24      0.01         0.01
  WSL2039                     0.27      0.27      0.33      0.01         0.01
  WSL2041                     0.24      0.24      0.27      0.01         0.01
  WSL2294                     2.19      2.19      2.20      0.01         0.01
  WSL2295                     2.20      2.20      2.20      0.01         0.03
  WSL2296                     2.20      2.20      2.74      0.01         0.01
  WSL2297                     2.42      2.42      2.45      0.01         0.01
  WSL2298                     2.20      2.20      2.20      0.01         0.04
  WSL2301                     2.45      2.45      2.53      0.01         0.01
  WSL2302                     2.53      2.53      2.60      0.01         0.01
  WSL2441                     2.19      2.19      2.19      0.01         0.01
  WSL2442                     2.19      2.19      2.20      0.01         0.01
  WSL2443                     2.18      2.18      2.19      0.01         0.01
  WSL2444                     2.17      2.17      2.18      0.01         0.01
  WSL2446                     2.16      2.16      2.17      0.01         0.01
  WSL2447                     2.16      2.16      2.16      0.01         0.01
  WSL2448                     2.16      2.16      2.16      0.01         0.01
  WSL2449                     2.15      2.15      2.16      0.01         0.01
  WSL2450                     2.15      2.15      2.15      0.01         0.01
  WSL2451                     2.15      2.15      2.15      0.06         0.01
  WSL2452                     2.15      2.15      2.15      0.01         0.01
  WSL2454                     2.14      2.14      2.15      0.01         0.01
  WSL2478                     2.14      2.14      2.14      0.03         0.01
  WSL2479                     1.21      1.21      2.14      0.01         0.01
  WSL2480                     0.77      0.78      1.21      0.54         0.45
  WSL2482                     0.43      0.43      0.78      0.01         0.06
  WSL2484                     0.13      0.13      0.43      0.01         0.01
  WSL2493                     2.19      2.19      2.19      0.01         0.01
  
  
  ***************
  Pumping Summary
  ***************
  
  ---------------------------------------------------------------------------------------------------------
                                                  Min       Avg       Max     Total     Power    % Time Off
                        Percent   Number of      Flow      Flow      Flow    Volume     Usage    Pump Curve
  Pump                 Utilized   Start-Ups       MLD       MLD       MLD  10^6 ltr     Kw-hr    Low   High
  ---------------------------------------------------------------------------------------------------------
  CC-Pump-1               34.75           3      0.00      8.95     17.28     0.477      4.22    0.0    0.0
  CC-Pump-2               34.75           3      0.00      8.95     17.28     0.477      4.22    0.0    0.0
  
  
  ***************************
  Link Pollutant Load Summary
  ***************************
  
  ------------------------------------------------------------------------------------------
                                 COD         NH3-N            TN            TP            SS
  Link                            kg            kg            kg            kg            kg
  ------------------------------------------------------------------------------------------
  WSL2038                     26.223         0.000         0.000         0.000         0.000
  WSL2039                     31.345         0.000         0.000         0.000         0.000
  WSL2041                     29.414         0.000         0.000         0.000         0.000
  WSL2294                    125.645         0.000         0.000         0.000         0.000
  WSL2295                    123.369         0.000         0.000         0.000         0.000
  WSL2296                    127.347         0.000         0.000         0.000         0.000
  WSL2297                    125.499         0.000         0.000         0.000         0.000
  WSL2298                    123.736         0.000         0.000         0.000         0.000
  WSL2301                    122.754         0.000         0.000         0.000         0.000
  WSL2302                    122.130         0.000         0.000         0.000         0.000
  WSL2441                    127.383         0.000         0.000         0.000         0.000
  WSL2442                     44.618         0.000         0.000         0.000         0.000
  WSL2443                     43.750         0.000         0.000         0.000         0.000
  WSL2444                     41.681         0.000         0.000         0.000         0.000
  WSL2446                     44.214         0.000         0.000         0.000         0.000
  WSL2447                     48.864         0.000         0.000         0.000         0.000
  WSL2448                     50.315         0.000         0.000         0.000         0.000
  WSL2449                     52.082         0.000         0.000         0.000         0.000
  WSL2450                     55.148         0.000         0.000         0.000         0.000
  WSL2451                     57.754         0.000         0.000         0.000         0.000
  WSL2452                     59.843         0.000         0.000         0.000         0.000
  WSL2454                     59.809         0.000         0.000         0.000         0.000
  WSL2478                     59.842         0.000         0.000         0.000         0.000
  WSL2479                     61.312         0.000         0.000         0.000         0.000
  WSL2480                    132.231         0.000         0.000         0.000         0.000
  WSL2482                    128.616         0.000         0.000         0.000         0.000
  WSL2484                    113.441         0.000         0.000         0.000         0.000
  WSL2493                     48.241         0.000         0.000         0.000         0.000
  8                          125.553         0.000         0.000         0.000         0.000
  19                           0.000         0.000         0.000         0.000         0.000
  17                         116.800         0.000         0.000         0.000         0.000
  CC-Pump-1                   40.186         0.000         0.000         0.000         0.000
  CC-Pump-2                   40.186         0.000         0.000         0.000         0.000
  

  Analysis begun on:  Mon Aug 19 11:18:49 2019
  Analysis ended on:  Mon Aug 19 11:18:49 2019
  Total elapsed time: < 1 sec