
  EPA STORM WATER MANAGEMENT MODEL - VERSION 5.1 (Build 5.2.0.dev5)
  --------------------------------------------------------------

  
  *********************************************************
  NOTE: The summary statistics displayed in this report are
  based on results found at every computational time step,  
  not just on results from each reporting time step.
  *********************************************************
  
  ****************
  Analysis Options
  ****************
  Flow Units ............... MLD
  Process Models:
    Rainfall/Runoff ........ YES
    RDII ................... NO
    Snowmelt ............... NO
    Groundwater ............ NO
    Flow Routing ........... YES
    Ponding Allowed ........ NO
    Water Quality .......... YES
  Infiltration Method ...... GREEN_AMPT
  Flow Routing Method ...... DYNWAVE
  Surcharge Method ......... EXTRAN
  Starting Date ............ 08/28/2015 08:00:00
  Ending Date .............. 08/28/2015 11:50:00
  Antecedent Dry Days ...... 4.0
  Report Time Step ......... 00:01:00
  Wet Time Step ............ 00:01:00
  Dry Time Step ............ 00:01:00
  Routing Time Step ........ 5.00 sec
  Variable Time Step ....... YES
  Maximum Trials ........... 8
  Number of Threads ........ 1
  Head Tolerance ........... 0.001500 m
  
  
  **************************        Volume         Depth
  Runoff Quantity Continuity     hectare-m            mm
  **************************     ---------       -------
  Total Precipitation ......         0.854        13.808
  Evaporation Loss .........         0.000         0.000
  Infiltration Loss ........         0.433         7.001
  Surface Runoff ...........         0.163         2.631
  Final Storage ............         0.258         4.177
  Continuity Error (%) .....        -0.007
  
  
  **************************           COD         NH3-N            TN            TP            SS
  Runoff Quality Continuity             kg            kg            kg            kg            kg
  **************************    ----------    ----------    ----------    ----------    ----------
  Initial Buildup ..........      2504.640         0.000         0.000         0.000         0.000
  Surface Buildup ..........        19.790         0.000         0.000         0.000         0.000
  Wet Deposition ...........         0.000         0.000         0.000         0.000         0.000
  Sweeping Removal .........         0.000         0.000         0.000         0.000         0.000
  Infiltration Loss ........        53.014         0.000         0.000         0.000         0.000
  BMP Removal ..............         0.000         0.000         0.000         0.000         0.000
  Surface Runoff ...........       187.496         0.000         0.000         0.000         0.000
  Remaining Buildup ........      2283.195         0.000         0.000         0.000         0.000
  Continuity Error (%) .....         0.029         0.000         0.000         0.000         0.000
  
  
  **************************        Volume        Volume
  Flow Routing Continuity        hectare-m      10^6 ltr
  **************************     ---------     ---------
  Dry Weather Inflow .......         0.000         0.000
  Wet Weather Inflow .......         0.162         1.624
  Groundwater Inflow .......         0.000         0.000
  RDII Inflow ..............         0.000         0.000
  External Inflow ..........         0.082         0.822
  External Outflow .........         0.202         2.020
  Flooding Loss ............         0.007         0.072
  Evaporation Loss .........         0.000         0.000
  Exfiltration Loss ........         0.000         0.000
  Initial Stored Volume ....         0.000         0.000
  Final Stored Volume ......         0.046         0.463
  Continuity Error (%) .....        -4.445
  
  
  **************************           COD         NH3-N            TN            TP            SS
  Quality Routing Continuity            kg            kg            kg            kg            kg
  **************************    ----------    ----------    ----------    ----------    ----------
  Dry Weather Inflow .......         0.000         0.000         0.000         0.000         0.000
  Wet Weather Inflow .......       187.097         0.000         0.000         0.000         0.000
  Groundwater Inflow .......         0.000         0.000         0.000         0.000         0.000
  RDII Inflow ..............         0.000         0.000         0.000         0.000         0.000
  External Inflow ..........       137.264         0.000         0.000         0.000         0.000
  External Outflow .........       233.945         0.000         0.000         0.000         0.000
  Flooding Loss ............        10.078         0.000         0.000         0.000         0.000
  Exfiltration Loss ........         0.000         0.000         0.000         0.000         0.000
  Mass Reacted .............         0.000         0.000         0.000         0.000         0.000
  Initial Stored Mass ......         0.000         0.000         0.000         0.000         0.000
  Final Stored Mass ........        58.912         0.000         0.000         0.000         0.000
  Continuity Error (%) .....         6.606         0.000         0.000         0.000         0.000
  
  
  *************************
  Highest Continuity Errors
  *************************
  Node WS02006230 (6.25%)
  Node WS02006115 (4.22%)
  Node WS02006242 (3.91%)
  Node WS02006229 (3.91%)
  Node WS02006116 (3.82%)
  
  
  ***************************
  Time-Step Critical Elements
  ***************************
  Link 8 (78.46%)
  Link 17 (11.30%)
  Link WSL2448 (8.55%)
  
  
  ********************************
  Highest Flow Instability Indexes
  ********************************
  Link WSL2302 (2)
  Link WSL2301 (2)
  Link WSL2297 (2)
  Link WSL2296 (2)
  Link WSL2298 (1)
  
  
  *************************
  Routing Time Step Summary
  *************************
  Minimum Time Step           :     0.26 sec
  Average Time Step           :     1.01 sec
  Maximum Time Step           :     5.00 sec
  Percent in Steady State     :    -0.00
  Average Iterations per Step :     2.13
  Percent Not Converging      :     1.50
  
  
  ***************************
  Subcatchment Runoff Summary
  ***************************
  
  ------------------------------------------------------------------------------------------------------------------------------
                            Total      Total      Total      Total     Imperv       Perv      Total       Total     Peak  Runoff
                           Precip      Runon       Evap      Infil     Runoff     Runoff     Runoff      Runoff   Runoff   Coeff
  Subcatchment                 mm         mm         mm         mm         mm         mm         mm    10^6 ltr      MLD
  ------------------------------------------------------------------------------------------------------------------------------
  1                         13.81      12.73       0.00       8.11       6.26       4.32      10.58        0.13     2.41   0.399
  2                         13.81       0.00       0.00       6.71       3.24       0.78       4.02        0.14     2.57   0.291
  3                         13.81       0.00       0.00       6.73       3.19       0.65       3.84        0.20     3.68   0.278
  35                        13.81       0.00       0.00       6.70       3.26       0.81       4.07        0.12     2.35   0.295
  36                        13.81       7.72       0.00       7.82       4.88       1.61       6.49        0.38     7.09   0.302
  40                        13.81       2.12       0.00       7.04       3.70       1.02       4.73        0.18     3.49   0.297
  41                        13.81       0.00       0.00       6.67       3.30       0.98       4.28        0.08     1.60   0.310
  42                        13.81       0.00       0.00       6.68       3.28       0.92       4.20        0.10     1.84   0.304
  43                        13.81       0.00       0.00       6.51       3.40       1.84       5.24        0.02     0.39   0.379
  44                        13.81     108.17       0.00      12.69      29.68      57.06      86.74        0.32     5.92   0.711
  45                        13.81       0.00       0.00       6.62       3.35       1.26       4.61        0.05     0.94   0.334
  46                        13.81       6.46       0.00       7.57       4.77       2.18       6.95        0.15     2.82   0.343
  47                        13.81       0.00       0.00       6.63       3.34       1.23       4.57        0.05     1.00   0.331
  48                        13.81       3.20       0.00       7.13       4.06       1.72       5.78        0.09     1.76   0.340
  55                        13.81       4.77       0.00       7.25       4.48       2.63       7.11        0.06     1.16   0.383
  56                        13.81       7.12       0.00       7.64       4.92       2.31       7.23        0.15     2.93   0.345
  57                        13.81       0.00       0.00       6.73       3.19       0.65       3.85        0.19     3.62   0.279
  59                        13.81       0.00       0.00       6.60       3.36       1.36       4.72        0.04     0.79   0.342
  60                        13.81      10.42       0.00       7.81       5.87       5.10      10.97        0.06     1.12   0.453
  61                        13.81       0.00       0.00       6.77       2.95       0.36       3.31        0.60    11.06   0.240
  64                        13.81       0.00       0.00       6.63       3.34       1.19       4.53        0.05     1.06   0.328
  
  
  ****************************
  Subcatchment Washoff Summary
  ****************************
  
  ------------------------------------------------------------------------------------------
                                 COD         NH3-N            TN            TP            SS
  Subcatchment                    kg            kg            kg            kg            kg
  ------------------------------------------------------------------------------------------
  1                           13.331         0.000         0.000         0.000         0.000
  2                            0.000         0.000         0.000         0.000         0.000
  3                            0.000         0.000         0.000         0.000         0.000
  35                          14.444         0.000         0.000         0.000         0.000
  36                          85.313         0.000         0.000         0.000         0.000
  40                          27.207         0.000         0.000         0.000         0.000
  41                          10.131         0.000         0.000         0.000         0.000
  42                          11.516         0.000         0.000         0.000         0.000
  43                           2.740         0.000         0.000         0.000         0.000
  44                          80.579         0.000         0.000         0.000         0.000
  45                           6.159         0.000         0.000         0.000         0.000
  46                          33.183         0.000         0.000         0.000         0.000
  47                           6.529         0.000         0.000         0.000         0.000
  48                          16.115         0.000         0.000         0.000         0.000
  55                          12.465         0.000         0.000         0.000         0.000
  56                          36.646         0.000         0.000         0.000         0.000
  57                          21.566         0.000         0.000         0.000         0.000
  59                           5.255         0.000         0.000         0.000         0.000
  60                          15.941         0.000         0.000         0.000         0.000
  61                          59.556         0.000         0.000         0.000         0.000
  64                           6.940         0.000         0.000         0.000         0.000
  ------------------------------------------------------------------------------------------
  System                     465.615         0.000         0.000         0.000         0.000
  
  
  ******************
  Node Depth Summary
  ******************
  
  ---------------------------------------------------------------------------------
                                 Average  Maximum  Maximum  Time of Max    Reported
                                   Depth    Depth      HGL   Occurrence   Max Depth
  Node                 Type       Meters   Meters   Meters  days hr:min      Meters
  ---------------------------------------------------------------------------------
  WS01000070           JUNCTION     0.00     0.00     0.00     0  00:00        0.00
  WS01000323           JUNCTION     0.00     0.00     0.00     0  00:00        0.00
  WS01000533           JUNCTION     0.00     0.00     6.86     0  00:00        0.00
  WS01005172           JUNCTION     0.00     0.00     0.00     0  00:00        0.00
  WS01005181           JUNCTION     0.00     0.00     0.00     0  00:00        0.00
  WS01009841           JUNCTION     0.00     0.00     0.00     0  00:00        0.00
  WS02000078           JUNCTION     0.00     0.00     0.00     0  00:00        0.00
  WS02000112           JUNCTION     0.00     0.00     0.00     0  00:00        0.00
  WS02000136           JUNCTION     0.00     0.00     0.00     0  00:00        0.00
  WS02004053           JUNCTION     0.00     0.00     0.00     0  00:00        0.00
  WS02004401           JUNCTION     2.15     2.33     8.33     0  02:35        2.33
  WS02005192           JUNCTION     0.42     0.67     8.54     0  02:30        0.66
  WS02005193           JUNCTION     0.47     0.71     8.53     0  02:30        0.71
  WS02005196           JUNCTION     0.44     0.69     8.54     0  02:30        0.68
  WS02006109           JUNCTION     1.55     1.80     8.42     0  01:42        1.76
  WS02006110           JUNCTION     1.57     1.79     8.39     0  01:42        1.77
  WS02006111           JUNCTION     1.58     1.78     8.36     0  01:42        1.76
  WS02006112           JUNCTION     2.03     2.23     8.35     0  01:42        2.22
  WS02006113           JUNCTION     1.57     1.79     8.38     0  01:42        1.77
  WS02006115           JUNCTION     2.05     2.24     8.34     0  01:42        2.23
  WS02006116           JUNCTION     2.11     2.29     8.33     0  02:35        2.29
  WS02006183           JUNCTION     0.00     0.00     0.00     0  00:00        0.00
  WS02006228           JUNCTION     1.52     1.78     8.43     0  01:42        1.74
  WS02006229           JUNCTION     1.48     1.75     8.44     0  01:42        1.70
  WS02006230           JUNCTION     1.42     1.71     8.46     0  01:42        1.65
  WS02006231           JUNCTION     1.28     1.56     8.46     0  01:42        1.49
  WS02006232           JUNCTION     1.16     1.46     8.49     0  01:42        1.35
  WS02006234           JUNCTION     1.04     1.36     8.52     0  01:42        1.21
  WS02006235           JUNCTION     1.04     1.36     8.53     0  01:42        1.20
  WS02006238           JUNCTION     1.03     1.35     8.53     0  01:42        1.19
  WS02006239           JUNCTION     1.00     1.28     8.49     0  01:42        1.16
  WS02006242           JUNCTION     0.92     1.25     8.55     0  01:42        1.07
  WS02006240           JUNCTION     0.93     1.21     8.50     0  01:42        1.08
  WS02006243           JUNCTION     0.81     1.21     8.63     0  01:41        0.96
  WS02006245           JUNCTION     0.75     1.14     8.63     0  01:42        0.89
  WS02006247           JUNCTION     0.73     1.04     8.55     0  01:41        0.87
  WS02006248           JUNCTION     0.65     0.79     8.38     0  02:30        0.79
  WS02006249           JUNCTION     0.65     1.09     8.69     0  01:42        0.82
  WS02006251           JUNCTION     0.60     0.95     8.62     0  02:38        0.82
  WS02006253           JUNCTION     0.49     0.73     8.53     0  02:30        0.73
  WS02618401           JUNCTION     0.00     0.00     0.00     0  00:00        0.00
  WSA1649              JUNCTION     0.00     0.00     0.00     0  00:00        0.00
  outfall-5            OUTFALL      0.10     0.19     7.86     0  02:30        0.19
  outfall-14           OUTFALL      0.08     0.13     7.79     0  02:35        0.13
  outfall-16           OUTFALL      0.00     0.00     8.39     0  00:00        0.00
  CC-storage           STORAGE      2.38     5.63     8.81     0  03:08        5.63
  
  
  *******************
  Node Inflow Summary
  *******************
  
  -------------------------------------------------------------------------------------------------
                                  Maximum  Maximum                  Lateral       Total        Flow
                                  Lateral    Total  Time of Max      Inflow      Inflow     Balance
                                   Inflow   Inflow   Occurrence      Volume      Volume       Error
  Node                 Type           MLD      MLD  days hr:min    10^6 ltr    10^6 ltr     Percent
  -------------------------------------------------------------------------------------------------
  WS01000070           JUNCTION      0.00     0.00     0  00:00           0           0       0.000 ltr
  WS01000323           JUNCTION      0.00     0.00     0  00:00           0           0       0.000 ltr
  WS01000533           JUNCTION      0.00     0.00     0  00:00           0           0       0.000 ltr
  WS01005172           JUNCTION      0.00     0.00     0  00:00           0           0       0.000 ltr
  WS01005181           JUNCTION      0.00     0.00     0  00:00           0           0       0.000 ltr
  WS01009841           JUNCTION      0.00     0.00     0  00:00           0           0       0.000 ltr
  WS02000078           JUNCTION      0.00     0.00     0  00:00           0           0       0.000 ltr
  WS02000112           JUNCTION      0.00     0.00     0  00:00           0           0       0.000 ltr
  WS02000136           JUNCTION      0.00     0.00     0  00:00           0           0       0.000 ltr
  WS02004053           JUNCTION      0.00     0.00     0  00:00           0           0       0.000 ltr
  WS02004401           JUNCTION      0.05    16.64     0  02:35      0.0086       0.849       3.455
  WS02005192           JUNCTION      3.71     6.11     0  01:46       0.209       0.215       1.183
  WS02005193           JUNCTION      0.09    11.82     0  01:44       0.014       0.249       2.995
  WS02005196           JUNCTION      0.12     7.88     0  01:43      0.0183       0.236       2.795
  WS02006109           JUNCTION      0.08    13.09     0  02:35      0.0129       0.689       3.602
  WS02006110           JUNCTION      0.08    13.17     0  02:35      0.0126        0.68       3.717
  WS02006111           JUNCTION      0.24    16.15     0  02:35      0.0352       0.887       2.348
  WS02006112           JUNCTION      0.18    16.30     0  02:35      0.0263       0.894       3.746
  WS02006113           JUNCTION      3.82    15.94     0  02:35       0.221       0.875       2.746
  WS02006115           JUNCTION      0.08    16.38     0  02:35      0.0129       0.879       4.403
  WS02006116           JUNCTION      0.24    16.59     0  02:35      0.0347       0.881       3.969
  WS02006183           JUNCTION      0.00     0.00     0  00:00           0           0       0.000 ltr
  WS02006228           JUNCTION      6.07    13.01     0  02:35       0.347        0.71       2.539
  WS02006229           JUNCTION      0.13    11.11     0  01:43      0.0193       0.399       4.068
  WS02006230           JUNCTION      0.07    12.85     0  01:42      0.0111       0.409       6.669
  WS02006231           JUNCTION      0.13    12.75     0  01:42      0.0197       0.417       3.642
  WS02006232           JUNCTION      2.65    15.62     0  01:39       0.148       0.487       3.179
  WS02006234           JUNCTION      0.14    19.20     0  01:39      0.0208       0.428       3.326
  WS02006235           JUNCTION      0.14    20.69     0  01:39      0.0215       0.426       1.767
  WS02006238           JUNCTION      0.15    22.89     0  01:39      0.0226       0.427       2.466
  WS02006239           JUNCTION      0.11    26.42     0  01:40      0.0167       0.431       3.644
  WS02006242           JUNCTION      0.08    33.90     0  01:41      0.0124       0.452       4.070
  WS02006240           JUNCTION      0.06    29.87     0  01:40     0.00952       0.438       3.914
  WS02006243           JUNCTION      0.17    34.39     0  01:41      0.0259       0.469       3.923
  WS02006245           JUNCTION      0.07    34.78     0  01:41      0.0109       0.466       2.783
  WS02006247           JUNCTION      2.54    35.30     0  01:41       0.152        0.55       2.077
  WS02006248           JUNCTION      0.12    38.69     0  02:30      0.0185        1.48       0.713
  WS02006249           JUNCTION      0.19    38.58     0  02:30      0.0275        1.26       1.149
  WS02006251           JUNCTION      1.22    38.40     0  02:30      0.0683        1.25       1.171
  WS02006253           JUNCTION      0.11    37.63     0  02:30      0.0166         1.2       0.606
  WS02618401           JUNCTION      0.00     0.00     0  00:00           0           0       0.000 ltr
  WSA1649              JUNCTION      0.00     0.00     0  00:00           0           0       0.000 ltr
  outfall-5            OUTFALL       0.00    35.33     0  02:30           0        1.21       0.000
  outfall-14           OUTFALL       0.00    16.65     0  02:35           0       0.815       0.000
  outfall-16           OUTFALL       0.00     0.00     0  00:00           0           0       0.000 ltr
  CC-storage           STORAGE      12.52    12.52     0  03:00       0.872       0.872     -14.068
  
  
  **********************
  Node Surcharge Summary
  **********************
  
  Surcharging occurs when water rises above the top of the highest conduit.
  ---------------------------------------------------------------------
                                               Max. Height   Min. Depth
                                   Hours       Above Crown    Below Rim
  Node                 Type      Surcharged         Meters       Meters
  ---------------------------------------------------------------------
  WS01000070           JUNCTION        3.83          0.000        0.000
  WS01000323           JUNCTION        3.83          0.000        0.000
  WS01000533           JUNCTION        3.83          0.000        2.147
  WS01005172           JUNCTION        3.83          0.000        0.000
  WS01005181           JUNCTION        3.83          0.000        0.000
  WS01009841           JUNCTION        3.83          0.000        0.000
  WS02000078           JUNCTION        3.83          0.000        0.000
  WS02000112           JUNCTION        3.83          0.000        0.000
  WS02000136           JUNCTION        3.83          0.000        0.000
  WS02004053           JUNCTION        3.83          0.000        0.000
  WS02005192           JUNCTION        0.21          0.069        2.750
  WS02005193           JUNCTION        0.27          0.113        2.504
  WS02005196           JUNCTION        0.23          0.087        2.619
  WS02006109           JUNCTION        2.19          0.996        0.842
  WS02006110           JUNCTION        2.19          0.993        0.852
  WS02006111           JUNCTION        2.19          0.979        0.898
  WS02006112           JUNCTION        2.42          1.231        0.452
  WS02006113           JUNCTION        2.19          0.985        0.948
  WS02006115           JUNCTION        2.45          1.239        1.060
  WS02006116           JUNCTION        2.53          1.292        1.058
  WS02006183           JUNCTION        3.83          0.000        0.000
  WS02006228           JUNCTION        2.19          0.980        1.251
  WS02006229           JUNCTION        2.19          0.951        1.503
  WS02006231           JUNCTION        2.18          0.859        0.684
  WS02006232           JUNCTION        2.16          0.762        0.727
  WS02006234           JUNCTION        2.16          0.662        0.595
  WS02006235           JUNCTION        2.16          0.663        0.631
  WS02006238           JUNCTION        2.16          0.650        0.784
  WS02006239           JUNCTION        2.15          0.581        0.748
  WS02006242           JUNCTION        2.15          0.551        0.298
  WS02006240           JUNCTION        2.15          0.512        0.891
  WS02006243           JUNCTION        2.14          0.508        0.272
  WS02006245           JUNCTION        2.14          0.442        0.413
  WS02006247           JUNCTION        2.13          0.343        0.417
  WS02006249           JUNCTION        0.70          0.388        0.000
  WS02006251           JUNCTION        0.43          0.251        1.259
  WS02006253           JUNCTION        0.12          0.034        2.420
  WS02618401           JUNCTION        3.83          0.000        0.000
  WSA1649              JUNCTION        3.83          0.000        0.000
  
  
  *********************
  Node Flooding Summary
  *********************
  
  Flooding refers to all water that overflows a node, whether it ponds or not.
  --------------------------------------------------------------------------
                                                             Total   Maximum
                                 Maximum   Time of Max       Flood    Ponded
                        Hours       Rate    Occurrence      Volume     Depth
  Node                 Flooded       MLD   days hr:min    10^6 ltr    Meters
  --------------------------------------------------------------------------
  WS02006249              0.01      9.52      0  01:42       0.000     0.000
  CC-storage              0.23      9.76      0  03:08       0.072     0.000
  
  
  **********************
  Storage Volume Summary
  **********************
  
  --------------------------------------------------------------------------------------------------
                         Average     Avg  Evap Exfil       Maximum     Max    Time of Max    Maximum
                          Volume    Pcnt  Pcnt  Pcnt        Volume    Pcnt     Occurrence    Outflow
  Storage Unit           1000 m3    Full  Loss  Loss       1000 m3    Full    days hr:min        MLD
  --------------------------------------------------------------------------------------------------
  CC-storage               0.067      42     0     0         0.159     100       0  03:08      34.56
  
  
  ***********************
  Outfall Loading Summary
  ***********************
  
  ---------------------------------------------------------------------------------------------------------------------------------
                         Flow       Avg       Max       Total         Total         Total         Total         Total         Total
                         Freq      Flow      Flow      Volume           COD         NH3-N            TN            TP            SS
  Outfall Node           Pcnt       MLD       MLD    10^6 ltr            kg            kg            kg            kg            kg
  ---------------------------------------------------------------------------------------------------------------------------------
  outfall-5             90.07     14.77     35.33       1.206       120.548         0.000         0.000         0.000         0.000
  outfall-14            90.11      9.62     16.65       0.815       113.408         0.000         0.000         0.000         0.000
  outfall-16             0.00      0.00      0.00       0.000         0.000         0.000         0.000         0.000         0.000
  ---------------------------------------------------------------------------------------------------------------------------------
  System                60.06     24.38     50.41       2.020       233.956         0.000         0.000         0.000         0.000
  
  
  ********************
  Link Flow Summary
  ********************
  
  -----------------------------------------------------------------------------
                                 Maximum  Time of Max   Maximum    Max/    Max/
                                  |Flow|   Occurrence   |Veloc|    Full    Full
  Link                 Type          MLD  days hr:min     m/sec    Flow   Depth
  -----------------------------------------------------------------------------
  WSL2038              CONDUIT      7.67     0  01:46      0.42    0.38    1.00
  WSL2039              CONDUIT     15.51     0  03:34      0.73    0.80    1.00
  WSL2041              CONDUIT     11.72     0  03:34      0.60    0.58    1.00
  WSL2294              CONDUIT     13.09     0  02:35      0.43    0.44    1.00
  WSL2295              CONDUIT     13.17     0  02:35      0.50    0.59    1.00
  WSL2296              CONDUIT     16.15     0  02:35      0.63    0.09    1.00
  WSL2297              CONDUIT     16.30     0  02:35      0.34    0.31    1.00
  WSL2298              CONDUIT     15.94     0  02:35      0.87    0.73    1.00
  WSL2301              CONDUIT     16.38     0  02:35      0.29    0.15    1.00
  WSL2302              CONDUIT     16.59     0  02:35      0.24    0.20    1.00
  WSL2441              CONDUIT     13.01     0  02:35      0.44    0.33    1.00
  WSL2442              CONDUIT     10.98     0  01:43      0.63    0.28    1.00
  WSL2443              CONDUIT     12.78     0  01:42      0.73    0.20    1.00
  WSL2444              CONDUIT     12.62     0  01:42      0.89    0.20    1.00
  WSL2446              CONDUIT     14.68     0  01:39      0.85    0.25    1.00
  WSL2447              CONDUIT     19.07     0  01:39      1.02    0.98    1.00
  WSL2448              CONDUIT     20.55     0  01:39      1.03    0.58    1.00
  WSL2449              CONDUIT     22.74     0  01:39      1.07    0.79    1.00
  WSL2450              CONDUIT     26.31     0  01:40      1.19    0.55    1.00
  WSL2451              CONDUIT     29.81     0  01:40      1.22    1.94    1.00
  WSL2452              CONDUIT     33.82     0  01:41      1.30    0.65    1.00
  WSL2454              CONDUIT     34.22     0  01:41      1.47    0.80    1.00
  WSL2478              CONDUIT     34.71     0  01:41      1.41    1.23    1.00
  WSL2479              CONDUIT     34.60     0  01:41      1.41    0.66    1.00
  WSL2480              CONDUIT     38.58     0  02:30      1.42    1.78    1.00
  WSL2482              CONDUIT     38.41     0  02:30      1.36    1.00    1.00
  WSL2484              CONDUIT     37.66     0  02:30      1.51    0.53    1.00
  WSL2493              CONDUIT     11.13     0  01:43      0.51    0.19    1.00
  8                    CONDUIT     35.33     0  02:30      6.86    0.47    0.48
  19                   CONDUIT      0.00     0  00:00      0.00    0.00    0.00
  17                   CONDUIT     16.65     0  02:35      5.66    0.22    0.32
  CC-Pump-1            PUMP        17.28     0  02:30              1.00
  CC-Pump-2            PUMP        17.28     0  02:30              1.00
  
  
  ***************************
  Flow Classification Summary
  ***************************
  
  -------------------------------------------------------------------------------------
                      Adjusted    ---------- Fraction of Time in Flow Class ---------- 
                       /Actual         Up    Down  Sub   Sup   Up    Down  Norm  Inlet 
  Conduit               Length    Dry  Dry   Dry   Crit  Crit  Crit  Crit  Ltd   Ctrl  
  -------------------------------------------------------------------------------------
  WSL2038                 1.00   0.00  0.00  0.00  1.00  0.00  0.00  0.00  0.01  0.00
  WSL2039                 1.00   0.00  0.00  0.00  1.00  0.00  0.00  0.00  0.00  0.00
  WSL2041                 1.00   0.00  0.00  0.00  1.00  0.00  0.00  0.00  0.32  0.00
  WSL2294                 1.00   0.00  0.00  0.00  1.00  0.00  0.00  0.00  0.00  0.00
  WSL2295                 1.00   0.00  0.00  0.00  1.00  0.00  0.00  0.00  0.00  0.00
  WSL2296                 1.00   0.00  0.00  0.00  1.00  0.00  0.00  0.00  0.17  0.00
  WSL2297                 1.00   0.00  0.00  0.00  1.00  0.00  0.00  0.00  0.00  0.00
  WSL2298                 1.00   0.00  0.00  0.00  0.98  0.02  0.00  0.00  0.00  0.00
  WSL2301                 1.00   0.00  0.00  0.00  1.00  0.00  0.00  0.00  0.04  0.00
  WSL2302                 1.00   0.00  0.00  0.00  1.00  0.00  0.00  0.00  0.01  0.00
  WSL2441                 1.00   0.00  0.00  0.00  1.00  0.00  0.00  0.00  0.00  0.00
  WSL2442                 1.00   0.00  0.00  0.00  1.00  0.00  0.00  0.00  0.17  0.00
  WSL2443                 1.00   0.00  0.00  0.00  1.00  0.00  0.00  0.00  0.31  0.00
  WSL2444                 1.00   0.00  0.00  0.00  0.94  0.06  0.00  0.00  0.24  0.00
  WSL2446                 1.00   0.00  0.00  0.00  0.93  0.07  0.00  0.00  0.03  0.00
  WSL2447                 1.00   0.00  0.00  0.00  1.00  0.00  0.00  0.00  0.00  0.00
  WSL2448                 1.00   0.00  0.00  0.00  1.00  0.00  0.00  0.00  0.00  0.00
  WSL2449                 1.00   0.00  0.00  0.00  1.00  0.00  0.00  0.00  0.02  0.00
  WSL2450                 1.00   0.00  0.00  0.00  1.00  0.00  0.00  0.00  0.41  0.00
  WSL2451                 1.00   0.00  0.00  0.00  1.00  0.00  0.00  0.00  0.00  0.00
  WSL2452                 1.00   0.00  0.00  0.00  1.00  0.00  0.00  0.00  0.39  0.00
  WSL2454                 1.00   0.00  0.00  0.00  1.00  0.00  0.00  0.00  0.01  0.00
  WSL2478                 1.00   0.00  0.00  0.00  1.00  0.00  0.00  0.00  0.00  0.00
  WSL2479                 1.00   0.00  0.00  0.00  1.00  0.00  0.00  0.00  0.40  0.00
  WSL2480                 1.00   0.00  0.00  0.00  1.00  0.00  0.00  0.00  0.00  0.00
  WSL2482                 1.00   0.00  0.00  0.00  1.00  0.00  0.00  0.00  0.39  0.00
  WSL2484                 1.00   0.00  0.00  0.00  1.00  0.00  0.00  0.00  0.38  0.00
  WSL2493                 1.00   0.00  0.00  0.00  1.00  0.00  0.00  0.00  0.05  0.00
  8                       1.00   0.10  0.00  0.00  0.00  0.90  0.00  0.00  0.12  0.00
  19                      1.00   1.00  0.00  0.00  0.00  0.00  0.00  0.00  0.00  0.00
  17                      1.00   0.10  0.00  0.00  0.00  0.90  0.00  0.00  0.05  0.00
  
  
  *************************
  Conduit Surcharge Summary
  *************************
  
  ----------------------------------------------------------------------------
                                                           Hours        Hours 
                         --------- Hours Full --------   Above Full   Capacity
  Conduit                Both Ends  Upstream  Dnstream   Normal Flow   Limited
  ----------------------------------------------------------------------------
  WSL2038                     0.21      0.21      0.23      0.01         0.01
  WSL2039                     0.26      0.27      0.29      0.01         0.01
  WSL2041                     0.23      0.23      0.27      0.01         0.01
  WSL2294                     2.19      2.19      2.19      0.01         0.01
  WSL2295                     2.19      2.19      2.19      0.01         0.03
  WSL2296                     2.19      2.19      2.74      0.01         0.01
  WSL2297                     2.42      2.42      2.45      0.01         0.01
  WSL2298                     2.19      2.19      2.19      0.01         0.04
  WSL2301                     2.45      2.45      2.53      0.01         0.01
  WSL2302                     2.53      2.53      2.60      0.01         0.01
  WSL2441                     2.19      2.19      2.19      0.01         0.01
  WSL2442                     2.19      2.19      2.20      0.01         0.01
  WSL2443                     2.18      2.18      2.19      0.01         0.01
  WSL2444                     2.16      2.16      2.18      0.01         0.01
  WSL2446                     2.16      2.16      2.16      0.01         0.01
  WSL2447                     2.16      2.16      2.16      0.01         0.01
  WSL2448                     2.16      2.16      2.16      0.01         0.01
  WSL2449                     2.15      2.15      2.16      0.01         0.01
  WSL2450                     2.15      2.15      2.15      0.01         0.01
  WSL2451                     2.15      2.15      2.15      0.06         0.01
  WSL2452                     2.14      2.14      2.15      0.01         0.01
  WSL2454                     2.14      2.14      2.14      0.01         0.01
  WSL2478                     2.13      2.13      2.14      0.04         0.01
  WSL2479                     1.15      1.15      2.13      0.01         0.01
  WSL2480                     0.70      0.70      1.15      0.54         0.46
  WSL2482                     0.43      0.43      0.70      0.01         0.03
  WSL2484                     0.12      0.12      0.43      0.01         0.01
  WSL2493                     2.19      2.19      2.19      0.01         0.01
  
  
  ***************
  Pumping Summary
  ***************
  
  ---------------------------------------------------------------------------------------------------------
                                                  Min       Avg       Max     Total     Power    % Time Off
                        Percent   Number of      Flow      Flow      Flow    Volume     Usage    Pump Curve
  Pump                 Utilized   Start-Ups       MLD       MLD       MLD  10^6 ltr     Kw-hr    Low   High
  ---------------------------------------------------------------------------------------------------------
  CC-Pump-1               34.77           3      0.00      8.83     17.28     0.472      4.20    0.0    0.0
  CC-Pump-2               34.77           3      0.00      8.83     17.28     0.472      4.20    0.0    0.0
  
  
  ***************************
  Link Pollutant Load Summary
  ***************************
  
  ------------------------------------------------------------------------------------------
                                 COD         NH3-N            TN            TP            SS
  Link                            kg            kg            kg            kg            kg
  ------------------------------------------------------------------------------------------
  WSL2038                     25.913         0.000         0.000         0.000         0.000
  WSL2039                     30.818         0.000         0.000         0.000         0.000
  WSL2041                     28.491         0.000         0.000         0.000         0.000
  WSL2294                    121.459         0.000         0.000         0.000         0.000
  WSL2295                    119.309         0.000         0.000         0.000         0.000
  WSL2296                    123.433         0.000         0.000         0.000         0.000
  WSL2297                    121.748         0.000         0.000         0.000         0.000
  WSL2298                    119.779         0.000         0.000         0.000         0.000
  WSL2301                    119.176         0.000         0.000         0.000         0.000
  WSL2302                    118.737         0.000         0.000         0.000         0.000
  WSL2441                    123.107         0.000         0.000         0.000         0.000
  WSL2442                     44.297         0.000         0.000         0.000         0.000
  WSL2443                     43.593         0.000         0.000         0.000         0.000
  WSL2444                     41.616         0.000         0.000         0.000         0.000
  WSL2446                     44.193         0.000         0.000         0.000         0.000
  WSL2447                     48.824         0.000         0.000         0.000         0.000
  WSL2448                     50.218         0.000         0.000         0.000         0.000
  WSL2449                     51.943         0.000         0.000         0.000         0.000
  WSL2450                     55.001         0.000         0.000         0.000         0.000
  WSL2451                     57.756         0.000         0.000         0.000         0.000
  WSL2452                     59.677         0.000         0.000         0.000         0.000
  WSL2454                     59.663         0.000         0.000         0.000         0.000
  WSL2478                     59.574         0.000         0.000         0.000         0.000
  WSL2479                     60.665         0.000         0.000         0.000         0.000
  WSL2480                    128.806         0.000         0.000         0.000         0.000
  WSL2482                    125.191         0.000         0.000         0.000         0.000
  WSL2484                    110.795         0.000         0.000         0.000         0.000
  WSL2493                     47.679         0.000         0.000         0.000         0.000
  8                          120.548         0.000         0.000         0.000         0.000
  19                           0.000         0.000         0.000         0.000         0.000
  17                         113.408         0.000         0.000         0.000         0.000
  CC-Pump-1                   39.171         0.000         0.000         0.000         0.000
  CC-Pump-2                   39.171         0.000         0.000         0.000         0.000
  

  Analysis begun on:  Mon Aug 19 11:19:00 2019
  Analysis ended on:  Mon Aug 19 11:19:01 2019
  Total elapsed time: 00:00:01