
  EPA STORM WATER MANAGEMENT MODEL - VERSION 5.1 (Build 5.2.0.dev5)
  --------------------------------------------------------------

  
  *********************************************************
  NOTE: The summary statistics displayed in this report are
  based on results found at every computational time step,  
  not just on results from each reporting time step.
  *********************************************************
  
  ****************
  Analysis Options
  ****************
  Flow Units ............... MLD
  Process Models:
    Rainfall/Runoff ........ YES
    RDII ................... NO
    Snowmelt ............... NO
    Groundwater ............ NO
    Flow Routing ........... YES
    Ponding Allowed ........ NO
    Water Quality .......... YES
  Infiltration Method ...... GREEN_AMPT
  Flow Routing Method ...... DYNWAVE
  Surcharge Method ......... EXTRAN
  Starting Date ............ 08/28/2015 08:00:00
  Ending Date .............. 08/28/2015 11:50:00
  Antecedent Dry Days ...... 4.0
  Report Time Step ......... 00:01:00
  Wet Time Step ............ 00:01:00
  Dry Time Step ............ 00:01:00
  Routing Time Step ........ 5.00 sec
  Variable Time Step ....... YES
  Maximum Trials ........... 8
  Number of Threads ........ 1
  Head Tolerance ........... 0.001500 m
  
  
  **************************        Volume         Depth
  Runoff Quantity Continuity     hectare-m            mm
  **************************     ---------       -------
  Total Precipitation ......         2.213        35.768
  Evaporation Loss .........         0.000         0.000
  Infiltration Loss ........         0.650        10.513
  Surface Runoff ...........         0.661        10.682
  Final Storage ............         0.902        14.574
  Continuity Error (%) .....        -0.004
  
  
  **************************           COD         NH3-N            TN            TP            SS
  Runoff Quality Continuity             kg            kg            kg            kg            kg
  **************************    ----------    ----------    ----------    ----------    ----------
  Initial Buildup ..........      2504.640         0.000         0.000         0.000         0.000
  Surface Buildup ..........        19.335         0.000         0.000         0.000         0.000
  Wet Deposition ...........         0.000         0.000         0.000         0.000         0.000
  Sweeping Removal .........         0.000         0.000         0.000         0.000         0.000
  Infiltration Loss ........       177.646         0.000         0.000         0.000         0.000
  BMP Removal ..............         0.000         0.000         0.000         0.000         0.000
  Surface Runoff ...........      1330.127         0.000         0.000         0.000         0.000
  Remaining Buildup ........      1016.532         0.000         0.000         0.000         0.000
  Continuity Error (%) .....        -0.013         0.000         0.000         0.000         0.000
  
  
  **************************        Volume        Volume
  Flow Routing Continuity        hectare-m      10^6 ltr
  **************************     ---------     ---------
  Dry Weather Inflow .......         0.000         0.000
  Wet Weather Inflow .......         0.659         6.590
  Groundwater Inflow .......         0.000         0.000
  RDII Inflow ..............         0.000         0.000
  External Inflow ..........         0.082         0.822
  External Outflow .........         0.645         6.453
  Flooding Loss ............         0.044         0.436
  Evaporation Loss .........         0.000         0.000
  Exfiltration Loss ........         0.000         0.000
  Initial Stored Volume ....         0.000         0.000
  Final Stored Volume ......         0.058         0.579
  Continuity Error (%) .....        -0.760
  
  
  **************************           COD         NH3-N            TN            TP            SS
  Quality Routing Continuity            kg            kg            kg            kg            kg
  **************************    ----------    ----------    ----------    ----------    ----------
  Dry Weather Inflow .......         0.000         0.000         0.000         0.000         0.000
  Wet Weather Inflow .......      1328.280         0.000         0.000         0.000         0.000
  Groundwater Inflow .......         0.000         0.000         0.000         0.000         0.000
  RDII Inflow ..............         0.000         0.000         0.000         0.000         0.000
  External Inflow ..........       137.264         0.000         0.000         0.000         0.000
  External Outflow .........      1229.980         0.000         0.000         0.000         0.000
  Flooding Loss ............       150.075         0.000         0.000         0.000         0.000
  Exfiltration Loss ........         0.000         0.000         0.000         0.000         0.000
  Mass Reacted .............         0.000         0.000         0.000         0.000         0.000
  Initial Stored Mass ......         0.000         0.000         0.000         0.000         0.000
  Final Stored Mass ........        68.666         0.000         0.000         0.000         0.000
  Continuity Error (%) .....         1.148         0.000         0.000         0.000         0.000
  
  
  *************************
  Highest Continuity Errors
  *************************
  Node WS02006230 (6.61%)
  Node WS02006229 (3.99%)
  Node WS02006231 (3.46%)
  Node WS02006242 (2.18%)
  Node WS02006240 (2.17%)
  
  
  ***************************
  Time-Step Critical Elements
  ***************************
  Link 8 (88.11%)
  Link WSL2448 (6.22%)
  Link 17 (4.51%)
  
  
  ********************************
  Highest Flow Instability Indexes
  ********************************
  Link WSL2302 (2)
  Link WSL2301 (2)
  Link WSL2297 (1)
  Link WSL2296 (1)
  
  
  *************************
  Routing Time Step Summary
  *************************
  Minimum Time Step           :     0.42 sec
  Average Time Step           :     0.82 sec
  Maximum Time Step           :     5.00 sec
  Percent in Steady State     :     0.00
  Average Iterations per Step :     2.08
  Percent Not Converging      :     0.94
  
  
  ***************************
  Subcatchment Runoff Summary
  ***************************
  
  ------------------------------------------------------------------------------------------------------------------------------
                            Total      Total      Total      Total     Imperv       Perv      Total       Total     Peak  Runoff
                           Precip      Runon       Evap      Infil     Runoff     Runoff     Runoff      Runoff   Runoff   Coeff
  Subcatchment                 mm         mm         mm         mm         mm         mm         mm    10^6 ltr      MLD
  ------------------------------------------------------------------------------------------------------------------------------
  1                         35.77      58.85       0.00      12.70      22.65      33.14      55.79        0.68    13.00   0.590
  2                         35.77       0.00       0.00       9.86       8.69       6.48      15.17        0.51    10.57   0.424
  3                         35.77       0.00       0.00       9.98       8.62       5.58      14.20        0.72    14.92   0.397
  35                        35.77       0.00       0.00       9.83       8.71       6.73      15.43        0.47     9.68   0.431
  36                        35.77      31.92       0.00      12.37      15.83      13.58      29.40        1.73    32.97   0.434
  40                        35.77       8.19       0.00      10.60      10.54       8.40      18.94        0.74    14.66   0.431
  41                        35.77       0.00       0.00       9.69       8.76       7.80      16.57        0.32     6.70   0.463
  42                        35.77       0.00       0.00       9.74       8.75       7.40      16.15        0.37     7.65   0.452
  43                        35.77       0.00       0.00       8.98       8.88      12.25      21.13        0.08     1.67   0.591
  44                        35.77     486.23       0.00      19.82     128.22     311.80     440.02        1.63    32.71   0.843
  45                        35.77       0.00       0.00       9.45       8.82       9.44      18.26        0.19     3.98   0.511
  46                        35.77      26.91       0.00      11.61      15.01      16.93      31.95        0.68    13.21   0.510
  47                        35.77       0.00       0.00       9.48       8.82       9.24      18.06        0.20     4.23   0.505
  48                        35.77      12.65       0.00      10.57      11.74      12.95      24.69        0.39     7.72   0.510
  55                        35.77      18.99       0.00      10.65      13.35      18.27      31.62        0.26     5.23   0.577
  56                        35.77      29.37       0.00      11.75      15.60      17.88      33.48        0.72    13.88   0.514
  57                        35.77       0.00       0.00       9.97       8.62       5.62      14.24        0.71    14.67   0.398
  59                        35.77       0.00       0.00       9.37       8.84       9.99      18.82        0.16     3.36   0.526
  60                        35.77      41.06       0.00      11.49      18.76      31.77      50.53        0.26     5.31   0.658
  61                        35.77       0.00       0.00      10.23       8.27       3.37      11.64        2.09    42.82   0.325
  64                        35.77       0.00       0.00       9.51       8.81       9.04      17.85        0.21     4.51   0.499
  
  
  ****************************
  Subcatchment Washoff Summary
  ****************************
  
  ------------------------------------------------------------------------------------------
                                 COD         NH3-N            TN            TP            SS
  Subcatchment                    kg            kg            kg            kg            kg
  ------------------------------------------------------------------------------------------
  1                          111.716         0.000         0.000         0.000         0.000
  2                            0.000         0.000         0.000         0.000         0.000
  3                            0.000         0.000         0.000         0.000         0.000
  35                         112.832         0.000         0.000         0.000         0.000
  36                         488.701         0.000         0.000         0.000         0.000
  40                         196.051         0.000         0.000         0.000         0.000
  41                          75.998         0.000         0.000         0.000         0.000
  42                          87.770         0.000         0.000         0.000         0.000
  43                          15.919         0.000         0.000         0.000         0.000
  44                         468.908         0.000         0.000         0.000         0.000
  45                          42.773         0.000         0.000         0.000         0.000
  46                         174.461         0.000         0.000         0.000         0.000
  47                          45.818         0.000         0.000         0.000         0.000
  48                          96.018         0.000         0.000         0.000         0.000
  55                          60.679         0.000         0.000         0.000         0.000
  56                         178.911         0.000         0.000         0.000         0.000
  57                         174.395         0.000         0.000         0.000         0.000
  59                          35.422         0.000         0.000         0.000         0.000
  60                          59.854         0.000         0.000         0.000         0.000
  61                         514.428         0.000         0.000         0.000         0.000
  64                          49.210         0.000         0.000         0.000         0.000
  ------------------------------------------------------------------------------------------
  System                    2989.864         0.000         0.000         0.000         0.000
  
  
  ******************
  Node Depth Summary
  ******************
  
  ---------------------------------------------------------------------------------
                                 Average  Maximum  Maximum  Time of Max    Reported
                                   Depth    Depth      HGL   Occurrence   Max Depth
  Node                 Type       Meters   Meters   Meters  days hr:min      Meters
  ---------------------------------------------------------------------------------
  WS01000070           JUNCTION     0.00     0.00     0.00     0  00:00        0.00
  WS01000323           JUNCTION     0.00     0.00     0.00     0  00:00        0.00
  WS01000533           JUNCTION     0.00     0.00     6.86     0  00:00        0.00
  WS01005172           JUNCTION     0.00     0.00     0.00     0  00:00        0.00
  WS01005181           JUNCTION     0.00     0.00     0.00     0  00:00        0.00
  WS01009841           JUNCTION     0.00     0.00     0.00     0  00:00        0.00
  WS02000078           JUNCTION     0.00     0.00     0.00     0  00:00        0.00
  WS02000112           JUNCTION     0.00     0.00     0.00     0  00:00        0.00
  WS02000136           JUNCTION     0.00     0.00     0.00     0  00:00        0.00
  WS02004053           JUNCTION     0.00     0.00     0.00     0  00:00        0.00
  WS02004401           JUNCTION     2.24     2.42     8.42     0  03:00        2.42
  WS02005192           JUNCTION     0.61     1.31     9.18     0  01:34        1.00
  WS02005193           JUNCTION     0.65     1.35     9.17     0  01:34        1.03
  WS02005196           JUNCTION     0.63     1.01     8.86     0  02:50        1.01
  WS02006109           JUNCTION     1.69     1.97     8.59     0  03:00        1.96
  WS02006110           JUNCTION     1.70     1.96     8.56     0  03:00        1.96
  WS02006111           JUNCTION     1.70     1.92     8.50     0  03:00        1.92
  WS02006112           JUNCTION     2.14     2.35     8.47     0  03:00        2.34
  WS02006113           JUNCTION     1.71     1.95     8.54     0  03:00        1.95
  WS02006115           JUNCTION     2.15     2.35     8.45     0  03:00        2.35
  WS02006116           JUNCTION     2.21     2.40     8.44     0  03:00        2.40
  WS02006183           JUNCTION     0.00     0.00     0.00     0  00:00        0.00
  WS02006228           JUNCTION     1.67     1.96     8.61     0  03:00        1.95
  WS02006229           JUNCTION     1.63     1.92     8.61     0  03:00        1.91
  WS02006230           JUNCTION     1.58     1.85     8.60     0  03:00        1.85
  WS02006231           JUNCTION     1.43     1.70     8.60     0  03:00        1.70
  WS02006232           JUNCTION     1.31     1.62     8.65     0  01:30        1.57
  WS02006234           JUNCTION     1.19     1.44     8.60     0  03:00        1.44
  WS02006235           JUNCTION     1.18     1.43     8.60     0  03:00        1.43
  WS02006238           JUNCTION     1.17     1.42     8.60     0  03:00        1.41
  WS02006239           JUNCTION     1.14     1.38     8.59     0  03:00        1.38
  WS02006242           JUNCTION     1.05     1.44     8.74     0  01:31        1.28
  WS02006240           JUNCTION     1.06     1.30     8.59     0  03:00        1.30
  WS02006243           JUNCTION     0.93     1.25     8.67     0  01:31        1.15
  WS02006245           JUNCTION     0.87     1.08     8.57     0  01:32        1.08
  WS02006247           JUNCTION     0.85     1.13     8.64     0  01:32        1.06
  WS02006248           JUNCTION     0.77     0.96     8.55     0  02:50        0.96
  WS02006249           JUNCTION     0.78     1.09     8.69     0  01:32        1.02
  WS02006251           JUNCTION     0.77     2.21     9.88     0  01:35        1.10
  WS02006253           JUNCTION     0.67     1.03     8.83     0  02:50        1.03
  WS02618401           JUNCTION     0.00     0.00     0.00     0  00:00        0.00
  WSA1649              JUNCTION     0.00     0.00     0.00     0  00:00        0.00
  outfall-5            OUTFALL      0.21     0.40     8.07     0  02:49        0.40
  outfall-14           OUTFALL      0.15     0.22     7.88     0  03:00        0.22
  outfall-16           OUTFALL      0.00     0.00     8.39     0  00:00        0.00
  CC-storage           STORAGE      3.14     5.63     8.81     0  01:58        5.63
  
  
  *******************
  Node Inflow Summary
  *******************
  
  -------------------------------------------------------------------------------------------------
                                  Maximum  Maximum                  Lateral       Total        Flow
                                  Lateral    Total  Time of Max      Inflow      Inflow     Balance
                                   Inflow   Inflow   Occurrence      Volume      Volume       Error
  Node                 Type           MLD      MLD  days hr:min    10^6 ltr    10^6 ltr     Percent
  -------------------------------------------------------------------------------------------------
  WS01000070           JUNCTION      0.00     0.00     0  00:00           0           0       0.000 ltr
  WS01000323           JUNCTION      0.00     0.00     0  00:00           0           0       0.000 ltr
  WS01000533           JUNCTION      0.00     0.00     0  00:00           0           0       0.000 ltr
  WS01005172           JUNCTION      0.00     0.00     0  00:00           0           0       0.000 ltr
  WS01005181           JUNCTION      0.00     0.00     0  00:00           0           0       0.000 ltr
  WS01009841           JUNCTION      0.00     0.00     0  00:00           0           0       0.000 ltr
  WS02000078           JUNCTION      0.00     0.00     0  00:00           0           0       0.000 ltr
  WS02000112           JUNCTION      0.00     0.00     0  00:00           0           0       0.000 ltr
  WS02000136           JUNCTION      0.00     0.00     0  00:00           0           0       0.000 ltr
  WS02004053           JUNCTION      0.00     0.00     0  00:00           0           0       0.000 ltr
  WS02004401           JUNCTION      0.05    46.53     0  03:00      0.0086        2.52       1.157
  WS02005192           JUNCTION     14.77    14.77     0  02:46       0.728        0.73       0.393
  WS02005193           JUNCTION      0.09    16.00     0  01:33       0.014       0.763       1.013
  WS02005196           JUNCTION      0.12    15.02     0  01:34      0.0183       0.751       0.969
  WS02006109           JUNCTION      0.08    32.15     0  03:01      0.0129        1.83       1.325
  WS02006110           JUNCTION      0.08    32.22     0  03:01      0.0126        1.82       1.354
  WS02006111           JUNCTION      0.24    46.04     0  03:00      0.0352        2.56       0.799
  WS02006112           JUNCTION      0.18    46.20     0  03:00      0.0263        2.56       1.257
  WS02006113           JUNCTION     15.07    45.83     0  03:00       0.748        2.55       0.927
  WS02006115           JUNCTION      0.08    46.27     0  03:00      0.0129        2.55       1.460
  WS02006116           JUNCTION      0.24    46.48     0  03:00      0.0347        2.55       1.316
  WS02006183           JUNCTION      0.00     0.00     0  00:00           0           0       0.000 ltr
  WS02006228           JUNCTION     32.86    32.86     0  03:01        1.65        1.93       0.922
  WS02006229           JUNCTION      0.13    13.39     0  01:29      0.0193       0.386       4.161
  WS02006230           JUNCTION      0.07    15.49     0  01:29      0.0111       0.401       7.078
  WS02006231           JUNCTION      0.13    19.91     0  01:29      0.0197       0.414       3.585
  WS02006232           JUNCTION     10.65    24.92     0  01:30       0.523       0.831       1.777
  WS02006234           JUNCTION      0.14    25.97     0  01:30      0.0208       0.747       1.898
  WS02006235           JUNCTION      0.14    26.08     0  01:30      0.0215       0.752       1.013
  WS02006238           JUNCTION      0.15    28.07     0  01:31      0.0226        0.76       1.260
  WS02006239           JUNCTION      0.11    33.79     0  01:31      0.0167       0.771       1.917
  WS02006242           JUNCTION      0.08    36.96     0  01:31      0.0124       0.802       2.226
  WS02006240           JUNCTION      0.06    33.44     0  01:31     0.00952       0.783       2.213
  WS02006243           JUNCTION      0.17    35.97     0  01:31      0.0259       0.824       2.107
  WS02006245           JUNCTION      0.07    36.13     0  01:31      0.0109       0.829       1.589
  WS02006247           JUNCTION     13.13    36.84     0  01:32       0.697        1.49       0.792
  WS02006248           JUNCTION      0.12    78.68     0  02:50      0.0185        4.18       0.259
  WS02006249           JUNCTION      0.19    54.93     0  02:50      0.0275        2.94       0.489
  WS02006251           JUNCTION      5.29    54.76     0  02:50       0.271        2.93       0.505
  WS02006253           JUNCTION      0.11    49.46     0  02:50      0.0166        2.67       0.289
  WS02618401           JUNCTION      0.00     0.00     0  00:00           0           0       0.000 ltr
  WSA1649              JUNCTION      0.00     0.00     0  00:00           0           0       0.000 ltr
  outfall-5            OUTFALL       0.00    78.64     0  02:50           0        3.97       0.000
  outfall-14           OUTFALL       0.00    46.53     0  03:00           0        2.49       0.000
  outfall-16           OUTFALL       0.00     0.00     0  00:00           0           0       0.000 ltr
  CC-storage           STORAGE      44.44    44.44     0  02:48        2.37        2.37      -3.594
  
  
  **********************
  Node Surcharge Summary
  **********************
  
  Surcharging occurs when water rises above the top of the highest conduit.
  ---------------------------------------------------------------------
                                               Max. Height   Min. Depth
                                   Hours       Above Crown    Below Rim
  Node                 Type      Surcharged         Meters       Meters
  ---------------------------------------------------------------------
  WS01000070           JUNCTION        3.83          0.000        0.000
  WS01000323           JUNCTION        3.83          0.000        0.000
  WS01000533           JUNCTION        3.83          0.000        2.147
  WS01005172           JUNCTION        3.83          0.000        0.000
  WS01005181           JUNCTION        3.83          0.000        0.000
  WS01009841           JUNCTION        3.83          0.000        0.000
  WS02000078           JUNCTION        3.83          0.000        0.000
  WS02000112           JUNCTION        3.83          0.000        0.000
  WS02000136           JUNCTION        3.83          0.000        0.000
  WS02004053           JUNCTION        3.83          0.000        0.000
  WS02005192           JUNCTION        1.20          0.706        2.113
  WS02005193           JUNCTION        1.34          0.748        1.869
  WS02005196           JUNCTION        1.25          0.412        2.294
  WS02006109           JUNCTION        2.34          1.168        0.670
  WS02006110           JUNCTION        2.34          1.165        0.680
  WS02006111           JUNCTION        2.34          1.119        0.758
  WS02006112           JUNCTION        2.47          1.347        0.336
  WS02006113           JUNCTION        2.34          1.154        0.779
  WS02006115           JUNCTION        2.49          1.350        0.949
  WS02006116           JUNCTION        2.55          1.399        0.951
  WS02006183           JUNCTION        3.83          0.000        0.000
  WS02006228           JUNCTION        2.34          1.157        1.074
  WS02006229           JUNCTION        2.34          1.116        1.338
  WS02006231           JUNCTION        2.33          1.004        0.539
  WS02006232           JUNCTION        2.32          0.917        0.572
  WS02006234           JUNCTION        2.32          0.741        0.516
  WS02006235           JUNCTION        2.32          0.729        0.565
  WS02006238           JUNCTION        2.32          0.718        0.716
  WS02006239           JUNCTION        2.31          0.683        0.646
  WS02006242           JUNCTION        2.31          0.743        0.106
  WS02006240           JUNCTION        2.31          0.598        0.805
  WS02006243           JUNCTION        2.30          0.549        0.231
  WS02006245           JUNCTION        2.30          0.381        0.474
  WS02006247           JUNCTION        2.30          0.434        0.326
  WS02006249           JUNCTION        1.91          0.388        0.000
  WS02006251           JUNCTION        1.54          1.510        0.000
  WS02006253           JUNCTION        1.10          0.335        2.119
  WS02618401           JUNCTION        3.83          0.000        0.000
  WSA1649              JUNCTION        3.83          0.000        0.000
  
  
  *********************
  Node Flooding Summary
  *********************
  
  Flooding refers to all water that overflows a node, whether it ponds or not.
  --------------------------------------------------------------------------
                                                             Total   Maximum
                                 Maximum   Time of Max       Flood    Ponded
                        Hours       Rate    Occurrence      Volume     Depth
  Node                 Flooded       MLD   days hr:min    10^6 ltr    Meters
  --------------------------------------------------------------------------
  WS02006249              0.01     16.65      0  01:32       0.000     0.000
  WS02006251              0.01     13.76      0  01:35       0.000     0.000
  CC-storage              0.60     41.11      0  02:40       0.436     0.000
  
  
  **********************
  Storage Volume Summary
  **********************
  
  --------------------------------------------------------------------------------------------------
                         Average     Avg  Evap Exfil       Maximum     Max    Time of Max    Maximum
                          Volume    Pcnt  Pcnt  Pcnt        Volume    Pcnt     Occurrence    Outflow
  Storage Unit           1000 m3    Full  Loss  Loss       1000 m3    Full    days hr:min        MLD
  --------------------------------------------------------------------------------------------------
  CC-storage               0.089      56     0     0         0.159     100       0  01:58      34.56
  
  
  ***********************
  Outfall Loading Summary
  ***********************
  
  ---------------------------------------------------------------------------------------------------------------------------------
                         Flow       Avg       Max       Total         Total         Total         Total         Total         Total
                         Freq      Flow      Flow      Volume           COD         NH3-N            TN            TP            SS
  Outfall Node           Pcnt       MLD       MLD    10^6 ltr            kg            kg            kg            kg            kg
  ---------------------------------------------------------------------------------------------------------------------------------
  outfall-5             92.70     43.15     78.64       3.966       755.406         0.000         0.000         0.000         0.000
  outfall-14            92.71     26.89     46.53       2.487       474.597         0.000         0.000         0.000         0.000
  outfall-16             0.00      0.00      0.00       0.000         0.000         0.000         0.000         0.000         0.000
  ---------------------------------------------------------------------------------------------------------------------------------
  System                61.80     70.03    125.07       6.453      1230.003         0.000         0.000         0.000         0.000
  
  
  ********************
  Link Flow Summary
  ********************
  
  -----------------------------------------------------------------------------
                                 Maximum  Time of Max   Maximum    Max/    Max/
                                  |Flow|   Occurrence   |Veloc|    Full    Full
  Link                 Type          MLD  days hr:min     m/sec    Flow   Depth
  -----------------------------------------------------------------------------
  WSL2038              CONDUIT     14.77     0  02:46      0.60    0.74    1.00
  WSL2039              CONDUIT     14.96     0  02:45      0.73    0.77    1.00
  WSL2041              CONDUIT     14.88     0  02:45      0.70    0.73    1.00
  WSL2294              CONDUIT     32.15     0  03:01      0.74    1.08    1.00
  WSL2295              CONDUIT     32.22     0  03:01      0.74    1.45    1.00
  WSL2296              CONDUIT     46.04     0  03:00      1.06    0.26    1.00
  WSL2297              CONDUIT     46.20     0  03:00      0.68    0.89    1.00
  WSL2298              CONDUIT     45.84     0  03:00      1.06    2.11    1.00
  WSL2301              CONDUIT     46.28     0  03:00      0.68    0.43    1.00
  WSL2302              CONDUIT     46.48     0  03:00      0.68    0.57    1.00
  WSL2441              CONDUIT     32.07     0  03:01      0.74    0.82    1.00
  WSL2442              CONDUIT     13.26     0  01:29      0.63    0.34    1.00
  WSL2443              CONDUIT     15.41     0  01:29      0.73    0.24    1.00
  WSL2444              CONDUIT     19.78     0  01:29      0.94    0.31    1.00
  WSL2446              CONDUIT     23.35     0  01:30      1.17    0.40    1.00
  WSL2447              CONDUIT     25.83     0  01:30      1.34    1.33    1.00
  WSL2448              CONDUIT     25.93     0  01:30      1.26    0.73    1.00
  WSL2449              CONDUIT     27.89     0  01:30      1.23    0.97    1.00
  WSL2450              CONDUIT     32.05     0  01:31      1.29    0.67    1.00
  WSL2451              CONDUIT     33.38     0  01:31      1.30    2.18    1.00
  WSL2452              CONDUIT     36.88     0  01:31      1.34    0.70    1.00
  WSL2454              CONDUIT     35.79     0  01:31      1.48    0.84    1.00
  WSL2478              CONDUIT     36.06     0  01:31      1.43    1.27    1.00
  WSL2479              CONDUIT     35.71     0  01:32      1.41    0.68    1.00
  WSL2480              CONDUIT     54.93     0  02:50      1.65    2.54    1.00
  WSL2482              CONDUIT     54.77     0  02:50      1.65    1.43    1.00
  WSL2484              CONDUIT     49.47     0  02:50      1.51    0.70    1.00
  WSL2493              CONDUIT     12.06     0  01:29      0.51    0.20    1.00
  8                    CONDUIT     78.64     0  02:50      7.96    1.04    0.95
  19                   CONDUIT      0.00     0  00:00      0.00    0.00    0.00
  17                   CONDUIT     46.53     0  03:00      7.42    0.60    0.56
  CC-Pump-1            PUMP        17.28     0  02:10              1.00
  CC-Pump-2            PUMP        17.28     0  02:10              1.00
  
  
  ***************************
  Flow Classification Summary
  ***************************
  
  -------------------------------------------------------------------------------------
                      Adjusted    ---------- Fraction of Time in Flow Class ---------- 
                       /Actual         Up    Down  Sub   Sup   Up    Down  Norm  Inlet 
  Conduit               Length    Dry  Dry   Dry   Crit  Crit  Crit  Crit  Ltd   Ctrl  
  -------------------------------------------------------------------------------------
  WSL2038                 1.00   0.00  0.00  0.00  1.00  0.00  0.00  0.00  0.01  0.00
  WSL2039                 1.00   0.00  0.00  0.00  1.00  0.00  0.00  0.00  0.00  0.00
  WSL2041                 1.00   0.00  0.00  0.00  1.00  0.00  0.00  0.00  0.29  0.00
  WSL2294                 1.00   0.00  0.00  0.00  1.00  0.00  0.00  0.00  0.00  0.00
  WSL2295                 1.00   0.00  0.00  0.00  1.00  0.00  0.00  0.00  0.00  0.00
  WSL2296                 1.00   0.00  0.00  0.00  1.00  0.00  0.00  0.00  0.17  0.00
  WSL2297                 1.00   0.00  0.00  0.00  1.00  0.00  0.00  0.00  0.00  0.00
  WSL2298                 1.00   0.00  0.00  0.00  0.98  0.02  0.00  0.00  0.00  0.00
  WSL2301                 1.00   0.00  0.00  0.00  1.00  0.00  0.00  0.00  0.04  0.00
  WSL2302                 1.00   0.00  0.00  0.00  1.00  0.00  0.00  0.00  0.01  0.00
  WSL2441                 1.00   0.00  0.00  0.00  1.00  0.00  0.00  0.00  0.00  0.00
  WSL2442                 1.00   0.00  0.00  0.00  1.00  0.00  0.00  0.00  0.17  0.00
  WSL2443                 1.00   0.00  0.00  0.00  1.00  0.00  0.00  0.00  0.30  0.00
  WSL2444                 1.00   0.00  0.00  0.00  0.95  0.05  0.00  0.00  0.22  0.00
  WSL2446                 1.00   0.00  0.00  0.00  0.95  0.05  0.00  0.00  0.00  0.00
  WSL2447                 1.00   0.00  0.00  0.00  1.00  0.00  0.00  0.00  0.00  0.00
  WSL2448                 1.00   0.00  0.00  0.00  1.00  0.00  0.00  0.00  0.00  0.00
  WSL2449                 1.00   0.00  0.00  0.00  1.00  0.00  0.00  0.00  0.02  0.00
  WSL2450                 1.00   0.00  0.00  0.00  1.00  0.00  0.00  0.00  0.36  0.00
  WSL2451                 1.00   0.00  0.00  0.00  1.00  0.00  0.00  0.00  0.00  0.00
  WSL2452                 1.00   0.00  0.00  0.00  1.00  0.00  0.00  0.00  0.35  0.00
  WSL2454                 1.00   0.00  0.00  0.00  1.00  0.00  0.00  0.00  0.01  0.00
  WSL2478                 1.00   0.00  0.00  0.00  1.00  0.00  0.00  0.00  0.00  0.00
  WSL2479                 1.00   0.00  0.00  0.00  1.00  0.00  0.00  0.00  0.35  0.00
  WSL2480                 1.00   0.00  0.00  0.00  1.00  0.00  0.00  0.00  0.00  0.00
  WSL2482                 1.00   0.00  0.00  0.00  1.00  0.00  0.00  0.00  0.35  0.00
  WSL2484                 1.00   0.00  0.00  0.00  1.00  0.00  0.00  0.00  0.34  0.00
  WSL2493                 1.00   0.00  0.00  0.00  1.00  0.00  0.00  0.00  0.05  0.00
  8                       1.00   0.07  0.00  0.00  0.00  0.93  0.00  0.00  0.11  0.00
  19                      1.00   1.00  0.00  0.00  0.00  0.00  0.00  0.00  0.00  0.00
  17                      1.00   0.07  0.00  0.00  0.00  0.93  0.00  0.00  0.02  0.00
  
  
  *************************
  Conduit Surcharge Summary
  *************************
  
  ----------------------------------------------------------------------------
                                                           Hours        Hours 
                         --------- Hours Full --------   Above Full   Capacity
  Conduit                Both Ends  Upstream  Dnstream   Normal Flow   Limited
  ----------------------------------------------------------------------------
  WSL2038                     1.20      1.20      1.25      0.01         0.01
  WSL2039                     1.34      1.34      1.40      0.01         0.01
  WSL2041                     1.25      1.25      1.34      0.01         0.01
  WSL2294                     2.34      2.34      2.34      0.25         0.26
  WSL2295                     2.34      2.34      2.34      0.84         0.87
  WSL2296                     2.34      2.34      2.74      0.01         0.01
  WSL2297                     2.47      2.47      2.49      0.01         0.01
  WSL2298                     2.34      2.34      2.34      1.45         1.51
  WSL2301                     2.49      2.49      2.55      0.01         0.01
  WSL2302                     2.55      2.55      2.61      0.01         0.01
  WSL2441                     2.34      2.34      2.34      0.01         0.01
  WSL2442                     2.34      2.34      2.35      0.01         0.01
  WSL2443                     2.33      2.33      2.34      0.01         0.01
  WSL2444                     2.32      2.32      2.33      0.01         0.01
  WSL2446                     2.32      2.32      2.32      0.01         0.01
  WSL2447                     2.32      2.32      2.32      0.02         0.01
  WSL2448                     2.32      2.32      2.32      0.01         0.01
  WSL2449                     2.31      2.31      2.32      0.01         0.01
  WSL2450                     2.31      2.31      2.31      0.01         0.01
  WSL2451                     2.31      2.31      2.31      0.08         0.01
  WSL2452                     2.30      2.30      2.31      0.01         0.01
  WSL2454                     2.30      2.30      2.30      0.01         0.01
  WSL2478                     2.30      2.30      2.30      0.05         0.01
  WSL2479                     2.06      2.06      2.30      0.01         0.01
  WSL2480                     1.90      1.91      2.06      1.39         1.31
  WSL2482                     1.54      1.54      1.91      0.98         0.97
  WSL2484                     1.10      1.10      1.54      0.01         0.01
  WSL2493                     2.34      2.34      2.34      0.01         0.01
  8                           0.01      0.01      0.23      0.23         0.01
  
  
  ***************
  Pumping Summary
  ***************
  
  ---------------------------------------------------------------------------------------------------------
                                                  Min       Avg       Max     Total     Power    % Time Off
                        Percent   Number of      Flow      Flow      Flow    Volume     Usage    Pump Curve
  Pump                 Utilized   Start-Ups       MLD       MLD       MLD  10^6 ltr     Kw-hr    Low   High
  ---------------------------------------------------------------------------------------------------------
  CC-Pump-1               47.80           3      0.00     12.94     17.28     0.954      5.64    0.0    0.0
  CC-Pump-2               47.80           3      0.00     12.94     17.28     0.954      5.64    0.0    0.0
  
  
  ***************************
  Link Pollutant Load Summary
  ***************************
  
  ------------------------------------------------------------------------------------------
                                 COD         NH3-N            TN            TP            SS
  Link                            kg            kg            kg            kg            kg
  ------------------------------------------------------------------------------------------
  WSL2038                    177.736         0.000         0.000         0.000         0.000
  WSL2039                    182.072         0.000         0.000         0.000         0.000
  WSL2041                    180.560         0.000         0.000         0.000         0.000
  WSL2294                    477.839         0.000         0.000         0.000         0.000
  WSL2295                    475.525         0.000         0.000         0.000         0.000
  WSL2296                    480.284         0.000         0.000         0.000         0.000
  WSL2297                    480.423         0.000         0.000         0.000         0.000
  WSL2298                    476.417         0.000         0.000         0.000         0.000
  WSL2301                    478.909         0.000         0.000         0.000         0.000
  WSL2302                    479.943         0.000         0.000         0.000         0.000
  WSL2441                    479.589         0.000         0.000         0.000         0.000
  WSL2442                     49.887         0.000         0.000         0.000         0.000
  WSL2443                     47.818         0.000         0.000         0.000         0.000
  WSL2444                     43.788         0.000         0.000         0.000         0.000
  WSL2446                     44.474         0.000         0.000         0.000         0.000
  WSL2447                     47.829         0.000         0.000         0.000         0.000
  WSL2448                     49.521         0.000         0.000         0.000         0.000
  WSL2449                     51.534         0.000         0.000         0.000         0.000
  WSL2450                     54.624         0.000         0.000         0.000         0.000
  WSL2451                     58.241         0.000         0.000         0.000         0.000
  WSL2452                     61.997         0.000         0.000         0.000         0.000
  WSL2454                     65.157         0.000         0.000         0.000         0.000
  WSL2478                     67.357         0.000         0.000         0.000         0.000
  WSL2479                    173.718         0.000         0.000         0.000         0.000
  WSL2480                    637.928         0.000         0.000         0.000         0.000
  WSL2482                    634.825         0.000         0.000         0.000         0.000
  WSL2484                    573.414         0.000         0.000         0.000         0.000
  WSL2493                     53.858         0.000         0.000         0.000         0.000
  8                          755.406         0.000         0.000         0.000         0.000
  19                           0.000         0.000         0.000         0.000         0.000
  17                         474.597         0.000         0.000         0.000         0.000
  CC-Pump-1                  194.743         0.000         0.000         0.000         0.000
  CC-Pump-2                  194.743         0.000         0.000         0.000         0.000
  

  Analysis begun on:  Mon Aug 19 11:19:13 2019
  Analysis ended on:  Mon Aug 19 11:19:14 2019
  Total elapsed time: 00:00:01