
  EPA STORM WATER MANAGEMENT MODEL - VERSION 5.1 (Build 5.3.0.dev0)
  --------------------------------------------------------------

  
  *********************************************************
  NOTE: The summary statistics displayed in this report are
  based on results found at every computational time step,  
  not just on results from each reporting time step.
  *********************************************************
  
  ****************
  Analysis Options
  ****************
  Flow Units ............... MLD
  Process Models:
    Rainfall/Runoff ........ YES
    RDII ................... NO
    Snowmelt ............... NO
    Groundwater ............ NO
    Flow Routing ........... YES
    Ponding Allowed ........ NO
    Water Quality .......... YES
  Infiltration Method ...... GREEN_AMPT
  Flow Routing Method ...... DYNWAVE
  Surcharge Method ......... EXTRAN
  Starting Date ............ 08/28/2015 08:00:00
  Ending Date .............. 08/28/2015 12:00:00
  Antecedent Dry Days ...... 4.0
  Report Time Step ......... 00:01:00
  Wet Time Step ............ 00:01:00
  Dry Time Step ............ 00:01:00
  Routing Time Step ........ 5.00 sec
  Variable Time Step ....... YES
  Maximum Trials ........... 8
  Number of Threads ........ 1
  Head Tolerance ........... 0.001500 m
  
  
  **************************        Volume         Depth
  Runoff Quantity Continuity     hectare-m            mm
  **************************     ---------       -------
  Total Precipitation ......         0.660        10.670
  Evaporation Loss .........         0.000         0.000
  Infiltration Loss ........         0.400         6.474
  Surface Runoff ...........         0.115         1.866
  Final Storage ............         0.144         2.331
  Continuity Error (%) .....        -0.008
  
  
  **************************           COD         NH3-N            TN            TP            SS
  Runoff Quality Continuity             kg            kg            kg            kg            kg
  **************************    ----------    ----------    ----------    ----------    ----------
  Initial Buildup ..........      2504.640         0.000         0.000         0.000         0.000
  Surface Buildup ..........        20.162         0.000         0.000         0.000         0.000
  Wet Deposition ...........         0.000         0.000         0.000         0.000         0.000
  Sweeping Removal .........         0.000         0.000         0.000         0.000         0.000
  Infiltration Loss ........        35.469         0.000         0.000         0.000         0.000
  BMP Removal ..............         0.000         0.000         0.000         0.000         0.000
  Surface Runoff ...........       103.777         0.000         0.000         0.000         0.000
  Remaining Buildup ........      2385.281         0.000         0.000         0.000         0.000
  Continuity Error (%) .....         0.011         0.000         0.000         0.000         0.000
  
  
  **************************        Volume        Volume
  Flow Routing Continuity        hectare-m      10^6 ltr
  **************************     ---------     ---------
  Dry Weather Inflow .......         0.000         0.000
  Wet Weather Inflow .......         0.115         1.152
  Groundwater Inflow .......         0.000         0.000
  RDII Inflow ..............         0.000         0.000
  External Inflow ..........         0.085         0.854
  External Outflow .........         0.223         2.230
  Flooding Loss ............         0.000         0.000
  Evaporation Loss .........         0.000         0.000
  Exfiltration Loss ........         0.000         0.000
  Initial Stored Volume ....         0.000         0.000
  Final Stored Volume ......         0.046         0.461
  Continuity Error (%) .....       -34.150
  
  
  **************************           COD         NH3-N            TN            TP            SS
  Quality Routing Continuity            kg            kg            kg            kg            kg
  **************************    ----------    ----------    ----------    ----------    ----------
  Dry Weather Inflow .......         0.000         0.000         0.000         0.000         0.000
  Wet Weather Inflow .......       103.636         0.000         0.000         0.000         0.000
  Groundwater Inflow .......         0.000         0.000         0.000         0.000         0.000
  RDII Inflow ..............         0.000         0.000         0.000         0.000         0.000
  External Inflow ..........       142.556         0.000         0.000         0.000         0.000
  External Outflow .........       122.760         0.000         0.000         0.000         0.000
  Flooding Loss ............         0.000         0.000         0.000         0.000         0.000
  Exfiltration Loss ........         0.000         0.000         0.000         0.000         0.000
  Mass Reacted .............         0.000         0.000         0.000         0.000         0.000
  Initial Stored Mass ......         0.000         0.000         0.000         0.000         0.000
  Final Stored Mass ........        40.507         0.000         0.000         0.000         0.000
  Continuity Error (%) .....        33.683         0.000         0.000         0.000         0.000
  
  
  *************************
  Highest Continuity Errors
  *************************
  Node WS02006230 (4.00%)
  Node WS02006115 (3.89%)
  Node WS02006242 (3.77%)
  Node WS02006116 (3.54%)
  Node WS02005196 (3.50%)
  
  
  ***************************
  Time-Step Critical Elements
  ***************************
  Link 8 (89.72%)
  Link WSL2448 (7.22%)
  
  
  ********************************
  Highest Flow Instability Indexes
  ********************************
  Link WSL2301 (2)
  Link WSL2302 (2)
  Link WSL2297 (2)
  Link WSL2296 (2)
  Link WSL2298 (2)
  
  
  *************************
  Routing Time Step Summary
  *************************
  Minimum Time Step           :     0.50 sec
  Average Time Step           :     0.90 sec
  Maximum Time Step           :     5.00 sec
  Percent in Steady State     :     0.00
  Average Iterations per Step :     2.07
  Percent Not Converging      :     0.37
  
  
  ***************************
  Subcatchment Runoff Summary
  ***************************
  
  ------------------------------------------------------------------------------------------------------------------------------
                            Total      Total      Total      Total     Imperv       Perv      Total       Total     Peak  Runoff
                           Precip      Runon       Evap      Infil     Runoff     Runoff     Runoff      Runoff   Runoff   Coeff
  Subcatchment                 mm         mm         mm         mm         mm         mm         mm    10^6 ltr      MLD
  ------------------------------------------------------------------------------------------------------------------------------
  1                         10.67       8.65       0.00       7.45       4.58       2.40       6.98        0.08     1.53   0.361
  2                         10.67       0.00       0.00       6.22       2.50       0.37       2.87        0.10     1.80   0.269
  3                         10.67       0.00       0.00       6.23       2.46       0.30       2.76        0.14     2.60   0.259
  35                        10.67       0.00       0.00       6.22       2.51       0.38       2.89        0.09     1.64   0.271
  36                        10.67       5.40       0.00       7.18       3.65       0.86       4.51        0.27     4.77   0.281
  40                        10.67       1.49       0.00       6.51       2.83       0.51       3.34        0.13     2.41   0.274
  41                        10.67       0.00       0.00       6.20       2.55       0.47       3.01        0.06     1.11   0.282
  42                        10.67       0.00       0.00       6.21       2.53       0.43       2.97        0.07     1.27   0.278
  43                        10.67       0.00       0.00       6.10       2.62       0.91       3.53        0.01     0.26   0.331
  44                        10.67      75.17       0.00      11.64      20.90      37.56      58.47        0.22     3.77   0.681
  45                        10.67       0.00       0.00       6.17       2.58       0.61       3.19        0.03     0.64   0.299
  46                        10.67       4.45       0.00       6.98       3.57       1.16       4.73        0.10     1.87   0.313
  47                        10.67       0.00       0.00       6.17       2.58       0.59       3.17        0.04     0.68   0.297
  48                        10.67       2.22       0.00       6.60       3.08       0.88       3.96        0.06     1.18   0.307
  55                        10.67       3.29       0.00       6.73       3.38       1.39       4.77        0.04     0.76   0.342
  56                        10.67       4.92       0.00       7.04       3.67       1.23       4.91        0.11     1.93   0.315
  57                        10.67       0.00       0.00       6.23       2.46       0.31       2.77        0.14     2.55   0.259
  59                        10.67       0.00       0.00       6.16       2.59       0.66       3.25        0.03     0.53   0.305
  60                        10.67       7.25       0.00       7.24       4.35       2.92       7.27        0.04     0.72   0.406
  61                        10.67       0.00       0.00       6.26       2.26       0.17       2.43        0.44     7.91   0.228
  64                        10.67       0.00       0.00       6.18       2.58       0.57       3.15        0.04     0.73   0.295
  
  
  ****************************
  Subcatchment Washoff Summary
  ****************************
  
  ------------------------------------------------------------------------------------------
                                 COD         NH3-N            TN            TP            SS
  Subcatchment                    kg            kg            kg            kg            kg
  ------------------------------------------------------------------------------------------
  1                            6.064         0.000         0.000         0.000         0.000
  2                            0.000         0.000         0.000         0.000         0.000
  3                            0.000         0.000         0.000         0.000         0.000
  35                           7.511         0.000         0.000         0.000         0.000
  36                          42.732         0.000         0.000         0.000         0.000
  40                          13.909         0.000         0.000         0.000         0.000
  41                           5.187         0.000         0.000         0.000         0.000
  42                           5.931         0.000         0.000         0.000         0.000
  43                           1.314         0.000         0.000         0.000         0.000
  44                          48.310         0.000         0.000         0.000         0.000
  45                           3.076         0.000         0.000         0.000         0.000
  46                          16.115         0.000         0.000         0.000         0.000
  47                           3.271         0.000         0.000         0.000         0.000
  48                           7.899         0.000         0.000         0.000         0.000
  55                           5.964         0.000         0.000         0.000         0.000
  56                          17.858         0.000         0.000         0.000         0.000
  57                          11.377         0.000         0.000         0.000         0.000
  59                           2.603         0.000         0.000         0.000         0.000
  60                           8.099         0.000         0.000         0.000         0.000
  61                          32.061         0.000         0.000         0.000         0.000
  64                           3.487         0.000         0.000         0.000         0.000
  ------------------------------------------------------------------------------------------
  System                     242.769         0.000         0.000         0.000         0.000
  
  
  ******************
  Node Depth Summary
  ******************
  
  ---------------------------------------------------------------------------------
                                 Average  Maximum  Maximum  Time of Max    Reported
                                   Depth    Depth      HGL   Occurrence   Max Depth
  Node                 Type       Meters   Meters   Meters  days hr:min      Meters
  ---------------------------------------------------------------------------------
  WS01000070           JUNCTION     0.00     0.00     0.00     0  00:00        0.00
  WS01000323           JUNCTION     0.00     0.00     0.00     0  00:00        0.00
  WS01000533           JUNCTION     0.00     0.00     6.86     0  00:00        0.00
  WS01005172           JUNCTION     0.00     0.00     0.00     0  00:00        0.00
  WS01005181           JUNCTION     0.00     0.00     0.00     0  00:00        0.00
  WS01009841           JUNCTION     0.00     0.00     0.00     0  00:00        0.00
  WS02000078           JUNCTION     0.00     0.00     0.00     0  00:00        0.00
  WS02000112           JUNCTION     0.00     0.00     0.00     0  00:00        0.00
  WS02000136           JUNCTION     0.00     0.00     0.00     0  00:00        0.00
  WS02004053           JUNCTION     0.00     0.00     0.00     0  00:00        0.00
  WS02004401           JUNCTION     2.18     2.31     8.31     0  03:01        2.31
  WS02005192           JUNCTION     0.41     0.51     8.38     0  03:00        0.51
  WS02005193           JUNCTION     0.46     0.56     8.38     0  03:00        0.56
  WS02005196           JUNCTION     0.43     0.53     8.38     0  03:00        0.53
  WS02006109           JUNCTION     1.58     1.71     8.33     0  03:00        1.71
  WS02006110           JUNCTION     1.59     1.73     8.33     0  03:00        1.72
  WS02006111           JUNCTION     1.61     1.74     8.32     0  03:00        1.74
  WS02006112           JUNCTION     2.06     2.20     8.32     0  03:00        2.20
  WS02006113           JUNCTION     1.60     1.74     8.33     0  03:00        1.73
  WS02006115           JUNCTION     2.08     2.22     8.32     0  03:00        2.21
  WS02006116           JUNCTION     2.14     2.27     8.31     0  03:00        2.27
  WS02006183           JUNCTION     0.00     0.00     0.00     0  00:00        0.00
  WS02006228           JUNCTION     1.55     1.68     8.33     0  03:00        1.68
  WS02006229           JUNCTION     1.51     1.64     8.33     0  03:00        1.64
  WS02006230           JUNCTION     1.45     1.58     8.33     0  03:00        1.58
  WS02006231           JUNCTION     1.31     1.43     8.33     0  03:00        1.43
  WS02006232           JUNCTION     1.18     1.30     8.33     0  03:00        1.30
  WS02006234           JUNCTION     1.06     1.18     8.34     0  03:00        1.17
  WS02006235           JUNCTION     1.05     1.17     8.34     0  03:00        1.16
  WS02006238           JUNCTION     1.04     1.16     8.34     0  03:00        1.15
  WS02006239           JUNCTION     1.02     1.13     8.34     0  03:00        1.12
  WS02006242           JUNCTION     0.93     1.04     8.34     0  03:00        1.03
  WS02006240           JUNCTION     0.94     1.05     8.34     0  03:00        1.04
  WS02006243           JUNCTION     0.82     0.92     8.34     0  03:00        0.92
  WS02006245           JUNCTION     0.76     0.85     8.34     0  03:00        0.85
  WS02006247           JUNCTION     0.74     0.83     8.34     0  03:00        0.83
  WS02006248           JUNCTION     0.66     0.75     8.34     0  03:01        0.75
  WS02006249           JUNCTION     0.66     0.75     8.35     0  03:00        0.75
  WS02006251           JUNCTION     0.60     0.70     8.37     0  03:01        0.70
  WS02006253           JUNCTION     0.48     0.58     8.38     0  03:00        0.58
  WS02618401           JUNCTION     0.00     0.00     0.00     0  00:00        0.00
  WSA1649              JUNCTION     0.00     0.00     0.00     0  00:00        0.00
  outfall-5            OUTFALL      0.10     0.15     7.81     0  03:01        0.15
  outfall-14           OUTFALL      0.08     0.11     7.77     0  03:01        0.11
  outfall-16           OUTFALL      0.00     0.00     8.39     0  00:00        0.00
  CC-storage           STORAGE      0.00     0.00     3.18     0  00:00        0.00
  
  
  *******************
  Node Inflow Summary
  *******************
  
  -------------------------------------------------------------------------------------------------
                                  Maximum  Maximum                  Lateral       Total        Flow
                                  Lateral    Total  Time of Max      Inflow      Inflow     Balance
                                   Inflow   Inflow   Occurrence      Volume      Volume       Error
  Node                 Type           MLD      MLD  days hr:min    10^6 ltr    10^6 ltr     Percent
  -------------------------------------------------------------------------------------------------
  WS01000070           JUNCTION      0.00     0.00     0  00:00           0           0       0.000 ltr
  WS01000323           JUNCTION      0.00     0.00     0  00:00           0           0       0.000 ltr
  WS01000533           JUNCTION      0.00     0.00     0  00:00           0           0       0.000 ltr
  WS01005172           JUNCTION      0.00     0.00     0  00:00           0           0       0.000 ltr
  WS01005181           JUNCTION      0.00     0.00     0  00:00           0           0       0.000 ltr
  WS01009841           JUNCTION      0.00     0.00     0  00:00           0           0       0.000 ltr
  WS02000078           JUNCTION      0.00     0.00     0  00:00           0           0       0.000 ltr
  WS02000112           JUNCTION      0.00     0.00     0  00:00           0           0       0.000 ltr
  WS02000136           JUNCTION      0.00     0.00     0  00:00           0           0       0.000 ltr
  WS02004053           JUNCTION      0.00     0.00     0  00:00           0           0       0.000 ltr
  WS02004401           JUNCTION      0.05    13.29     0  03:01     0.00897       0.932       3.106
  WS02005192           JUNCTION      2.64     2.64     0  03:01       0.156       0.157       1.565
  WS02005193           JUNCTION      0.09     4.73     0  01:29      0.0146       0.197       3.618
  WS02005196           JUNCTION      0.12     3.51     0  01:29       0.019       0.179       3.630
  WS02006109           JUNCTION      0.08     9.89     0  03:01      0.0135       0.843       2.956
  WS02006110           JUNCTION      0.08     9.97     0  03:01      0.0132       0.831       3.045
  WS02006111           JUNCTION      0.24    12.82     0  03:01      0.0366       0.978       2.158
  WS02006112           JUNCTION      0.18    12.97     0  03:01      0.0273       0.984       3.408
  WS02006113           JUNCTION      2.74    12.62     0  03:01       0.167       0.968       2.503
  WS02006115           JUNCTION      0.08    13.05     0  03:01      0.0134       0.968       4.047
  WS02006116           JUNCTION      0.24    13.24     0  03:01       0.036        0.97       3.667
  WS02006183           JUNCTION      0.00     0.00     0  00:00           0           0       0.000 ltr
  WS02006228           JUNCTION      3.92     9.82     0  03:01       0.244       0.852       2.165
  WS02006229           JUNCTION      0.13     6.14     0  00:13        0.02       0.629       2.645
  WS02006230           JUNCTION      0.07     6.06     0  00:12      0.0116       0.629       4.167
  WS02006231           JUNCTION      0.13     5.98     0  00:47      0.0205       0.626       2.502
  WS02006232           JUNCTION      1.87     5.82     0  00:12        0.11       0.622       2.549
  WS02006234           JUNCTION      0.14     5.74     0  00:11      0.0216       0.526       2.691
  WS02006235           JUNCTION      0.14     5.60     0  00:11      0.0223        0.51       1.599
  WS02006238           JUNCTION      0.15     5.46     0  00:11      0.0235       0.497       2.080
  WS02006239           JUNCTION      0.11     5.34     0  00:10      0.0174       0.487       3.252
  WS02006242           JUNCTION      0.08     5.21     0  01:06      0.0129       0.488       3.916
  WS02006240           JUNCTION      0.06     5.24     0  00:09     0.00992       0.483       3.514
  WS02006243           JUNCTION      0.17     5.35     0  01:10      0.0269       0.491       3.618
  WS02006245           JUNCTION      0.07     5.36     0  01:11      0.0113       0.474       2.859
  WS02006247           JUNCTION      1.66     5.59     0  01:13       0.109       0.473       2.457
  WS02006248           JUNCTION      0.12    22.82     0  03:01      0.0192        1.71       0.613
  WS02006249           JUNCTION      0.19    22.69     0  03:01      0.0286         1.7       0.851
  WS02006251           JUNCTION      0.82    22.56     0  03:01      0.0493        1.68       0.832
  WS02006253           JUNCTION      0.11    21.76     0  03:00      0.0173        1.65       0.415
  WS02618401           JUNCTION      0.00     0.00     0  00:00           0           0       0.000 ltr
  WSA1649              JUNCTION      0.00     0.00     0  00:00           0           0       0.000 ltr
  outfall-5            OUTFALL       0.00    21.55     0  03:01           0        1.34       0.000
  outfall-14           OUTFALL       0.00    13.29     0  03:01           0       0.895       0.000
  outfall-16           OUTFALL       0.00     0.00     0  00:00           0           0       0.000 ltr
  CC-storage           STORAGE       9.42     9.42     0  03:00       0.724       0.724     -50.000
  
  
  **********************
  Node Surcharge Summary
  **********************
  
  Surcharging occurs when water rises above the top of the highest conduit.
  ---------------------------------------------------------------------
                                               Max. Height   Min. Depth
                                   Hours       Above Crown    Below Rim
  Node                 Type      Surcharged         Meters       Meters
  ---------------------------------------------------------------------
  WS01000070           JUNCTION        4.00          0.000        0.000
  WS01000323           JUNCTION        4.00          0.000        0.000
  WS01000533           JUNCTION        4.00          0.000        2.147
  WS01005172           JUNCTION        4.00          0.000        0.000
  WS01005181           JUNCTION        4.00          0.000        0.000
  WS01009841           JUNCTION        4.00          0.000        0.000
  WS02000078           JUNCTION        4.00          0.000        0.000
  WS02000112           JUNCTION        4.00          0.000        0.000
  WS02000136           JUNCTION        4.00          0.000        0.000
  WS02004053           JUNCTION        4.00          0.000        0.000
  WS02006109           JUNCTION        2.97          0.910        0.928
  WS02006110           JUNCTION        2.98          0.928        0.917
  WS02006111           JUNCTION        3.00          0.942        0.935
  WS02006112           JUNCTION        3.20          1.199        0.484
  WS02006113           JUNCTION        2.99          0.936        0.997
  WS02006115           JUNCTION        3.22          1.216        1.083
  WS02006116           JUNCTION        3.28          1.274        1.076
  WS02006183           JUNCTION        4.00          0.000        0.000
  WS02006228           JUNCTION        2.96          0.881        1.350
  WS02006229           JUNCTION        2.93          0.841        1.613
  WS02006231           JUNCTION        2.86          0.732        0.811
  WS02006232           JUNCTION        2.77          0.604        0.885
  WS02006234           JUNCTION        2.69          0.475        0.782
  WS02006235           JUNCTION        2.69          0.466        0.828
  WS02006238           JUNCTION        2.68          0.456        0.978
  WS02006239           JUNCTION        2.67          0.427        0.902
  WS02006242           JUNCTION        2.62          0.337        0.512
  WS02006240           JUNCTION        2.62          0.347        1.056
  WS02006243           JUNCTION        2.55          0.217        0.563
  WS02006245           JUNCTION        2.53          0.148        0.707
  WS02006247           JUNCTION        2.53          0.127        0.633
  WS02006249           JUNCTION        1.28          0.048        0.340
  WS02006251           JUNCTION        0.03          0.002        1.508
  WS02618401           JUNCTION        4.00          0.000        0.000
  WSA1649              JUNCTION        4.00          0.000        0.000
  
  
  *********************
  Node Flooding Summary
  *********************
  
  No nodes were flooded.
  
  
  **********************
  Storage Volume Summary
  **********************
  
  --------------------------------------------------------------------------------------------------
                         Average     Avg  Evap Exfil       Maximum     Max    Time of Max    Maximum
                          Volume    Pcnt  Pcnt  Pcnt        Volume    Pcnt     Occurrence    Outflow
  Storage Unit           1000 m3    Full  Loss  Loss       1000 m3    Full    days hr:min        MLD
  --------------------------------------------------------------------------------------------------
  CC-storage               0.000       0     0     0         0.000       0       0  00:00      18.85
  
  
  ***********************
  Outfall Loading Summary
  ***********************
  
  ---------------------------------------------------------------------------------------------------------------------------------
                         Flow       Avg       Max       Total         Total         Total         Total         Total         Total
                         Freq      Flow      Flow      Volume           COD         NH3-N            TN            TP            SS
  Outfall Node           Pcnt       MLD       MLD    10^6 ltr            kg            kg            kg            kg            kg
  ---------------------------------------------------------------------------------------------------------------------------------
  outfall-5             91.05     13.06     21.55       1.335        27.202         0.000         0.000         0.000         0.000
  outfall-14            90.92      8.74     13.29       0.895        95.563         0.000         0.000         0.000         0.000
  outfall-16             0.00      0.00      0.00       0.000         0.000         0.000         0.000         0.000         0.000
  ---------------------------------------------------------------------------------------------------------------------------------
  System                60.66     21.80     34.84       2.230       122.764         0.000         0.000         0.000         0.000
  
  
  ********************
  Link Flow Summary
  ********************
  
  -----------------------------------------------------------------------------
                                 Maximum  Time of Max   Maximum    Max/    Max/
                                  |Flow|   Occurrence   |Veloc|    Full    Full
  Link                 Type          MLD  days hr:min     m/sec    Flow   Depth
  -----------------------------------------------------------------------------
  WSL2038              CONDUIT      2.72     0  03:00      0.23    0.14    0.86
  WSL2039              CONDUIT      4.63     0  01:29      0.43    0.24    0.94
  WSL2041              CONDUIT      2.94     0  03:02      0.23    0.14    0.90
  WSL2294              CONDUIT      9.89     0  03:01      0.65    0.33    1.00
  WSL2295              CONDUIT      9.97     0  03:01      0.72    0.45    1.00
  WSL2296              CONDUIT     12.82     0  03:01      1.08    0.07    1.00
  WSL2297              CONDUIT     12.97     0  03:01      0.57    0.25    1.00
  WSL2298              CONDUIT     12.63     0  03:01      1.20    0.58    1.00
  WSL2301              CONDUIT     13.05     0  03:01      0.38    0.12    1.00
  WSL2302              CONDUIT     13.24     0  03:01      0.23    0.16    1.00
  WSL2441              CONDUIT      9.82     0  03:01      0.72    0.25    1.00
  WSL2442              CONDUIT      6.01     0  00:13      0.89    0.15    1.00
  WSL2443              CONDUIT      5.99     0  00:12      1.02    0.09    1.00
  WSL2444              CONDUIT      5.85     0  00:47      1.18    0.09    1.00
  WSL2446              CONDUIT      5.74     0  00:12      1.14    0.10    1.00
  WSL2447              CONDUIT      5.60     0  00:11      0.91    0.29    1.00
  WSL2448              CONDUIT      5.46     0  00:11      0.76    0.15    1.00
  WSL2449              CONDUIT      5.31     0  00:11      0.71    0.19    1.00
  WSL2450              CONDUIT      5.23     0  00:10      0.84    0.11    1.00
  WSL2451              CONDUIT      5.18     0  00:09      0.76    0.34    1.00
  WSL2452              CONDUIT      5.13     0  01:06      0.86    0.10    1.00
  WSL2454              CONDUIT      5.18     0  01:10      0.95    0.12    1.00
  WSL2478              CONDUIT      5.29     0  01:11      0.86    0.19    1.00
  WSL2479              CONDUIT      5.34     0  01:13      0.83    0.10    1.00
  WSL2480              CONDUIT     22.71     0  03:01      0.85    1.05    1.00
  WSL2482              CONDUIT     22.54     0  03:01      0.86    0.59    1.00
  WSL2484              CONDUIT     21.74     0  03:01      1.35    0.31    0.91
  WSL2493              CONDUIT      6.08     0  00:15      0.78    0.10    1.00
  8                    CONDUIT     21.55     0  03:01      6.01    0.28    0.36
  19                   CONDUIT      0.00     0  00:00      0.00    0.00    0.00
  17                   CONDUIT     13.29     0  03:01      5.31    0.17    0.28
  CC-Pump-1            PUMP         9.42     0  03:00              0.55
  CC-Pump-2            PUMP         9.42     0  03:00              0.55
  
  
  ***************************
  Flow Classification Summary
  ***************************
  
  -------------------------------------------------------------------------------------
                      Adjusted    ---------- Fraction of Time in Flow Class ---------- 
                       /Actual         Up    Down  Sub   Sup   Up    Down  Norm  Inlet 
  Conduit               Length    Dry  Dry   Dry   Crit  Crit  Crit  Crit  Ltd   Ctrl  
  -------------------------------------------------------------------------------------
  WSL2038                 1.00   0.00  0.00  0.00  1.00  0.00  0.00  0.00  0.00  0.00
  WSL2039                 1.00   0.00  0.00  0.00  1.00  0.00  0.00  0.00  0.00  0.00
  WSL2041                 1.00   0.00  0.00  0.00  1.00  0.00  0.00  0.00  0.00  0.00
  WSL2294                 1.00   0.00  0.00  0.00  1.00  0.00  0.00  0.00  0.00  0.00
  WSL2295                 1.00   0.00  0.00  0.00  1.00  0.00  0.00  0.00  0.00  0.00
  WSL2296                 1.00   0.00  0.00  0.00  1.00  0.00  0.00  0.00  0.11  0.00
  WSL2297                 1.00   0.00  0.00  0.00  1.00  0.00  0.00  0.00  0.00  0.00
  WSL2298                 1.00   0.00  0.00  0.00  0.98  0.02  0.00  0.00  0.00  0.00
  WSL2301                 1.00   0.00  0.00  0.00  1.00  0.00  0.00  0.00  0.04  0.00
  WSL2302                 1.00   0.00  0.00  0.00  1.00  0.00  0.00  0.00  0.01  0.00
  WSL2441                 1.00   0.00  0.00  0.00  1.00  0.00  0.00  0.00  0.00  0.00
  WSL2442                 1.00   0.00  0.00  0.00  1.00  0.00  0.00  0.00  0.01  0.00
  WSL2443                 1.00   0.00  0.00  0.00  1.00  0.00  0.00  0.00  0.06  0.00
  WSL2444                 1.00   0.00  0.00  0.00  0.96  0.04  0.00  0.00  0.03  0.00
  WSL2446                 1.00   0.00  0.00  0.00  0.95  0.05  0.00  0.00  0.19  0.00
  WSL2447                 1.00   0.00  0.00  0.00  1.00  0.00  0.00  0.00  0.00  0.00
  WSL2448                 1.00   0.00  0.00  0.00  1.00  0.00  0.00  0.00  0.00  0.00
  WSL2449                 1.00   0.00  0.00  0.00  1.00  0.00  0.00  0.00  0.02  0.00
  WSL2450                 1.00   0.00  0.00  0.00  1.00  0.00  0.00  0.00  0.02  0.00
  WSL2451                 1.00   0.00  0.00  0.00  1.00  0.00  0.00  0.00  0.00  0.00
  WSL2452                 1.00   0.00  0.00  0.00  1.00  0.00  0.00  0.00  0.26  0.00
  WSL2454                 1.00   0.00  0.00  0.00  1.00  0.00  0.00  0.00  0.01  0.00
  WSL2478                 1.00   0.00  0.00  0.00  1.00  0.00  0.00  0.00  0.00  0.00
  WSL2479                 1.00   0.00  0.00  0.00  1.00  0.00  0.00  0.00  0.01  0.00
  WSL2480                 1.00   0.00  0.00  0.00  1.00  0.00  0.00  0.00  0.00  0.00
  WSL2482                 1.00   0.00  0.00  0.00  1.00  0.00  0.00  0.00  0.01  0.00
  WSL2484                 1.00   0.00  0.00  0.00  1.00  0.00  0.00  0.00  0.01  0.00
  WSL2493                 1.00   0.00  0.00  0.00  1.00  0.00  0.00  0.00  0.04  0.00
  8                       1.00   0.09  0.00  0.00  0.00  0.91  0.00  0.00  0.01  0.00
  19                      1.00   1.00  0.00  0.00  0.00  0.00  0.00  0.00  0.00  0.00
  17                      1.00   0.09  0.00  0.00  0.00  0.91  0.00  0.00  0.00  0.00
  
  
  *************************
  Conduit Surcharge Summary
  *************************
  
  ----------------------------------------------------------------------------
                                                           Hours        Hours 
                         --------- Hours Full --------   Above Full   Capacity
  Conduit                Both Ends  Upstream  Dnstream   Normal Flow   Limited
  ----------------------------------------------------------------------------
  WSL2294                     2.97      2.97      2.98      0.01         0.01
  WSL2295                     2.98      2.98      2.99      0.01         0.01
  WSL2296                     3.00      3.00      3.40      0.01         0.01
  WSL2297                     3.20      3.20      3.22      0.01         0.01
  WSL2298                     2.99      2.99      3.00      0.01         0.01
  WSL2301                     3.22      3.22      3.28      0.01         0.01
  WSL2302                     3.28      3.28      3.31      0.01         0.01
  WSL2441                     2.96      2.96      2.97      0.01         0.01
  WSL2442                     2.96      2.96      2.99      0.01         0.01
  WSL2443                     2.86      2.86      2.96      0.01         0.01
  WSL2444                     2.77      2.77      2.86      0.01         0.01
  WSL2446                     2.69      2.69      2.77      0.01         0.01
  WSL2447                     2.69      2.69      2.69      0.01         0.01
  WSL2448                     2.68      2.68      2.69      0.01         0.01
  WSL2449                     2.67      2.67      2.68      0.01         0.01
  WSL2450                     2.62      2.62      2.67      0.01         0.01
  WSL2451                     2.62      2.62      2.62      0.01         0.01
  WSL2452                     2.55      2.55      2.62      0.01         0.01
  WSL2454                     2.53      2.53      2.55      0.01         0.01
  WSL2478                     2.53      2.53      2.53      0.01         0.01
  WSL2479                     1.66      1.66      2.53      0.01         0.01
  WSL2480                     1.28      1.28      1.66      0.12         0.12
  WSL2482                     0.03      0.03      1.28      0.01         0.01
  WSL2484                     0.01      0.01      0.03      0.01         0.01
  WSL2493                     2.93      2.93      2.96      0.01         0.01
  
  
  ***************
  Pumping Summary
  ***************
  
  ---------------------------------------------------------------------------------------------------------
                                                  Min       Avg       Max     Total     Power    % Time Off
                        Percent   Number of      Flow      Flow      Flow    Volume     Usage    Pump Curve
  Pump                 Utilized   Start-Ups       MLD       MLD       MLD  10^6 ltr     Kw-hr    Low   High
  ---------------------------------------------------------------------------------------------------------
  CC-Pump-1              100.00           1      0.00      5.51      9.42     0.724     10.01    0.0    0.0
  CC-Pump-2              100.00           1      0.00      5.51      9.42     0.724     10.01    0.0    0.0
  
  
  ***************************
  Link Pollutant Load Summary
  ***************************
  
  ------------------------------------------------------------------------------------------
                                 COD         NH3-N            TN            TP            SS
  Link                            kg            kg            kg            kg            kg
  ------------------------------------------------------------------------------------------
  WSL2038                     14.393         0.000         0.000         0.000         0.000
  WSL2039                     18.823         0.000         0.000         0.000         0.000
  WSL2041                     17.217         0.000         0.000         0.000         0.000
  WSL2294                     91.337         0.000         0.000         0.000         0.000
  WSL2295                     90.641         0.000         0.000         0.000         0.000
  WSL2296                     97.301         0.000         0.000         0.000         0.000
  WSL2297                     97.577         0.000         0.000         0.000         0.000
  WSL2298                     92.176         0.000         0.000         0.000         0.000
  WSL2301                     98.066         0.000         0.000         0.000         0.000
  WSL2302                    100.026         0.000         0.000         0.000         0.000
  WSL2441                     91.991         0.000         0.000         0.000         0.000
  WSL2442                     39.875         0.000         0.000         0.000         0.000
  WSL2443                     38.591         0.000         0.000         0.000         0.000
  WSL2444                     36.393         0.000         0.000         0.000         0.000
  WSL2446                     35.019         0.000         0.000         0.000         0.000
  WSL2447                     32.737         0.000         0.000         0.000         0.000
  WSL2448                     29.781         0.000         0.000         0.000         0.000
  WSL2449                     26.477         0.000         0.000         0.000         0.000
  WSL2450                     24.291         0.000         0.000         0.000         0.000
  WSL2451                     23.385         0.000         0.000         0.000         0.000
  WSL2452                     22.525         0.000         0.000         0.000         0.000
  WSL2454                     19.420         0.000         0.000         0.000         0.000
  WSL2478                     18.596         0.000         0.000         0.000         0.000
  WSL2479                      9.538         0.000         0.000         0.000         0.000
  WSL2480                     33.382         0.000         0.000         0.000         0.000
  WSL2482                     28.821         0.000         0.000         0.000         0.000
  WSL2484                     21.400         0.000         0.000         0.000         0.000
  WSL2493                     42.027         0.000         0.000         0.000         0.000
  8                           27.202         0.000         0.000         0.000         0.000
  19                           0.000         0.000         0.000         0.000         0.000
  17                          95.563         0.000         0.000         0.000         0.000
  CC-Pump-1                    0.000         0.000         0.000         0.000         0.000
  CC-Pump-2                    0.000         0.000         0.000         0.000         0.000
  

  Analysis begun on:  Wed Jan  1 18:26:17 2020
  Analysis ended on:  Wed Jan  1 18:26:17 2020
  Total elapsed time: < 1 sec