
  EPA STORM WATER MANAGEMENT MODEL - VERSION 5.1 (Build 5.1.013)
  --------------------------------------------------------------

  
  *********************************************************
  NOTE: The summary statistics displayed in this report are
  based on results found at every computational time step,  
  not just on results from each reporting time step.
  *********************************************************
  
  ****************
  Analysis Options
  ****************
  Flow Units ............... MLD
  Process Models:
    Rainfall/Runoff ........ YES
    RDII ................... NO
    Snowmelt ............... NO
    Groundwater ............ NO
    Flow Routing ........... YES
    Ponding Allowed ........ NO
    Water Quality .......... YES
  Infiltration Method ...... GREEN_AMPT
  Flow Routing Method ...... DYNWAVE
  Surcharge Method ......... EXTRAN
  Starting Date ............ 08/28/2015 08:00:00
  Ending Date .............. 08/28/2015 12:00:00
  Antecedent Dry Days ...... 4.0
  Report Time Step ......... 00:01:00
  Wet Time Step ............ 00:01:00
  Dry Time Step ............ 00:01:00
  Routing Time Step ........ 5.00 sec
  Variable Time Step ....... YES
  Maximum Trials ........... 8
  Number of Threads ........ 1
  Head Tolerance ........... 0.001500 m
  
  
  **************************        Volume         Depth
  Runoff Quantity Continuity     hectare-m            mm
  **************************     ---------       -------
  Total Precipitation ......        11.853        42.023
  Evaporation Loss .........         0.000         0.000
  Infiltration Loss ........         4.387        15.552
  Surface Runoff ...........         4.654        16.500
  Final Storage ............         2.818         9.990
  Continuity Error (%) .....        -0.045
  
  
  **************************           COD         NH3-N            TN            TP            SS
  Runoff Quality Continuity             kg            kg            kg            kg            kg
  **************************    ----------    ----------    ----------    ----------    ----------
  Initial Buildup ..........     13074.240         0.000         0.000         0.000         0.000
  Surface Buildup ..........       105.684         0.000         0.000         0.000         0.000
  Wet Deposition ...........         0.000         0.000         0.000         0.000         0.000
  Sweeping Removal .........         0.000         0.000         0.000         0.000         0.000
  Infiltration Loss ........       424.194         0.000         0.000         0.000         0.000
  BMP Removal ..............         0.000         0.000         0.000         0.000         0.000
  Surface Runoff ...........     10060.852         0.000         0.000         0.000         0.000
  Remaining Buildup ........      2697.999         0.000         0.000         0.000         0.000
  Continuity Error (%) .....        -0.024         0.000         0.000         0.000         0.000
  
  
  **************************        Volume        Volume
  Flow Routing Continuity        hectare-m      10^6 ltr
  **************************     ---------     ---------
  Dry Weather Inflow .......         0.000         0.000
  Wet Weather Inflow .......         4.646        46.461
  Groundwater Inflow .......         0.000         0.000
  RDII Inflow ..............         0.000         0.000
  External Inflow ..........         0.561         5.611
  External Outflow .........         1.914        19.137
  Flooding Loss ............         3.155        31.553
  Evaporation Loss .........         0.000         0.000
  Exfiltration Loss ........         0.000         0.000
  Initial Stored Volume ....         0.000         0.000
  Final Stored Volume ......         0.141         1.415
  Continuity Error (%) .....        -0.063
  
  
  **************************           COD         NH3-N            TN            TP            SS
  Quality Routing Continuity            kg            kg            kg            kg            kg
  **************************    ----------    ----------    ----------    ----------    ----------
  Dry Weather Inflow .......         0.000         0.000         0.000         0.000         0.000
  Wet Weather Inflow .......     10053.971         0.000         0.000         0.000         0.000
  Groundwater Inflow .......         0.000         0.000         0.000         0.000         0.000
  RDII Inflow ..............         0.000         0.000         0.000         0.000         0.000
  External Inflow ..........       936.997         0.000         0.000         0.000         0.000
  External Outflow .........      3584.052         0.000         0.000         0.000         0.000
  Flooding Loss ............      7339.789         0.000         0.000         0.000         0.000
  Exfiltration Loss ........         0.000         0.000         0.000         0.000         0.000
  Mass Reacted .............         0.000         0.000         0.000         0.000         0.000
  Initial Stored Mass ......         0.000         0.000         0.000         0.000         0.000
  Final Stored Mass ........        97.177         0.000         0.000         0.000         0.000
  Continuity Error (%) .....        -0.273         0.000         0.000         0.000         0.000
  
  
  ***************************
  Time-Step Critical Elements
  ***************************
  Link 8 (38.84%)
  Link WSL1477 (23.38%)
  Link WSL1516 (19.42%)
  Link WSL2448 (9.24%)
  Link WSL2011 (1.44%)
  
  
  ********************************
  Highest Flow Instability Indexes
  ********************************
  Link WSL1477 (98)
  Link WSL1516 (86)
  Link WSL1476 (30)
  Link WSL1521 (30)
  Link WSL1515 (23)
  
  
  *************************
  Routing Time Step Summary
  *************************
  Minimum Time Step           :     0.50 sec
  Average Time Step           :     1.59 sec
  Maximum Time Step           :     5.00 sec
  Percent in Steady State     :    -0.00
  Average Iterations per Step :     3.08
  Percent Not Converging      :    11.16
  
  
  ***************************
  Subcatchment Runoff Summary
  ***************************
  
  ------------------------------------------------------------------------------------------------------------------------------
                            Total      Total      Total      Total     Imperv       Perv      Total       Total     Peak  Runoff
                           Precip      Runon       Evap      Infil     Runoff     Runoff     Runoff      Runoff   Runoff   Coeff
  Subcatchment                 mm         mm         mm         mm         mm         mm         mm    10^6 ltr      MLD
  ------------------------------------------------------------------------------------------------------------------------------
  1                         42.02      90.34       0.00      15.48      32.18      59.74      91.93        1.11    13.93   0.695
  2                         42.02       0.00       0.00      11.52      10.34      10.71      21.05        0.71    18.05   0.501
  3                         42.02       0.00       0.00      11.74      10.29       9.44      19.73        1.01    25.15   0.469
  4                         42.02       0.00       0.00      11.38      10.36      11.46      21.82        0.58    14.91   0.519
  5                         42.02      51.56       0.00      14.41      22.82      37.99      60.81        1.03    16.98   0.650
  6                         42.02       0.00       0.00      11.72      10.30       9.53      19.83        0.98    24.51   0.472
  7                         42.02       0.00       0.00      17.92      16.69       0.15      16.84       26.94   421.88   0.401
  8                         42.02       0.00       0.00      11.64      10.31      10.00      20.31        0.86    21.70   0.483
  9                         42.02      20.13       0.00      13.23      15.08      18.06      33.14        1.25    24.48   0.533
  17                        42.02       0.00       0.00      11.57      10.33      10.44      20.77        0.76    19.33   0.494
  18                        42.02       0.00       0.00      11.66      10.31       9.93      20.24        0.88    22.10   0.482
  28                        42.02      83.15       0.00      16.17      30.15      48.26      78.41        2.06    24.87   0.626
  29                        42.02      34.02       0.00      13.64      18.38      25.67      44.05        1.06    16.67   0.579
  30                        42.02      79.55       0.00      14.91      29.81      58.61      88.42        0.82    13.20   0.727
  31                        42.02       0.00       0.00      11.55      10.33      10.55      20.88        0.74    18.82   0.497
  33                        42.02       0.00       0.00      10.64      10.43      15.02      25.45        0.22     5.99   0.606
  34                        42.02      45.22       0.00      14.31      21.27      33.44      54.71        1.13    19.14   0.627
  35                        42.02       0.00       0.00      11.46      10.35      11.04      21.39        0.65    16.57   0.509
  36                        42.02      46.73       0.00      15.27      21.23      25.74      46.97        2.77    42.30   0.529
  39                        42.02       0.00       0.00      11.53      10.34      10.67      21.01        0.72    18.22   0.500
  40                        42.02      11.32       0.00      12.58      12.99      14.43      27.42        1.07    23.09   0.514
  41                        42.02       0.00       0.00      11.19      10.39      12.47      22.85        0.44    11.52   0.544
  42                        42.02       0.00       0.00      11.29      10.37      11.95      22.32        0.51    13.15   0.531
  43                        42.02       0.00       0.00       9.98      10.46      17.60      28.07        0.10     2.90   0.668
  44                        42.02     773.09       0.00      23.84     201.53     528.62     730.15        2.70    37.58   0.896
  45                        42.02       0.00       0.00      10.77      10.43      14.49      24.91        0.26     6.88   0.593
  46                        42.02      38.24       0.00      13.90      19.52      29.29      48.81        1.04    17.61   0.608
  47                        42.02       0.00       0.00      10.82      10.42      14.25      24.67        0.27     7.32   0.587
  48                        42.02      17.31       0.00      12.36      14.55      21.11      35.66        0.56    11.76   0.601
  55                        42.02      25.83       0.00      12.31      16.70      28.68      45.38        0.38     7.56   0.669
  56                        42.02      41.48       0.00      14.09      20.32      30.93      51.25        1.10    17.95   0.614
  57                        42.02       0.00       0.00      11.73      10.29       9.50      19.79        0.99    24.75   0.471
  59                        42.02       0.00       0.00      10.62      10.44      15.12      25.56        0.21     5.82   0.608
  60                        42.02      56.27       0.00      13.24      24.22      48.94      73.16        0.38     6.82   0.744
  61                        42.02       0.00       0.00      12.26      10.06       6.05      16.11        2.90    67.68   0.383
  62                        42.02       0.00       0.00      12.28      10.04       5.92      15.97        3.03    70.57   0.380
  64                        42.02       0.00       0.00      10.87      10.42      14.01      24.42        0.29     7.80   0.581
  
  
  ****************************
  Subcatchment Washoff Summary
  ****************************
  
  ------------------------------------------------------------------------------------------
                                 COD         NH3-N            TN            TP            SS
  Subcatchment                    kg            kg            kg            kg            kg
  ------------------------------------------------------------------------------------------
  1                          165.849         0.000         0.000         0.000         0.000
  2                            0.000         0.000         0.000         0.000         0.000
  3                            0.000         0.000         0.000         0.000         0.000
  4                          118.459         0.000         0.000         0.000         0.000
  5                          219.776         0.000         0.000         0.000         0.000
  6                          212.988         0.000         0.000         0.000         0.000
  7                         6125.607         0.000         0.000         0.000         0.000
  8                          184.470         0.000         0.000         0.000         0.000
  9                          273.319         0.000         0.000         0.000         0.000
  17                         160.935         0.000         0.000         0.000         0.000
  18                         188.569         0.000         0.000         0.000         0.000
  28                         434.578         0.000         0.000         0.000         0.000
  29                         218.555         0.000         0.000         0.000         0.000
  30                         171.985         0.000         0.000         0.000         0.000
  31                         155.942         0.000         0.000         0.000         0.000
  33                          40.132         0.000         0.000         0.000         0.000
  34                         234.546         0.000         0.000         0.000         0.000
  35                         134.143         0.000         0.000         0.000         0.000
  36                         621.142         0.000         0.000         0.000         0.000
  39                         150.100         0.000         0.000         0.000         0.000
  40                         230.561         0.000         0.000         0.000         0.000
  41                          87.475         0.000         0.000         0.000         0.000
  42                         102.178         0.000         0.000         0.000         0.000
  43                          16.856         0.000         0.000         0.000         0.000
  44                         616.441         0.000         0.000         0.000         0.000
  45                          47.328         0.000         0.000         0.000         0.000
  46                         208.529         0.000         0.000         0.000         0.000
  47                          50.909         0.000         0.000         0.000         0.000
  48                         109.113         0.000         0.000         0.000         0.000
  55                          68.772         0.000         0.000         0.000         0.000
  56                         220.559         0.000         0.000         0.000         0.000
  57                         215.414         0.000         0.000         0.000         0.000
  59                          38.777         0.000         0.000         0.000         0.000
  60                          70.618         0.000         0.000         0.000         0.000
  61                         695.474         0.000         0.000         0.000         0.000
  62                         729.704         0.000         0.000         0.000         0.000
  64                          54.925         0.000         0.000         0.000         0.000
  ------------------------------------------------------------------------------------------
  System                   13374.728         0.000         0.000         0.000         0.000
  
  
  ******************
  Node Depth Summary
  ******************
  
  ---------------------------------------------------------------------------------
                                 Average  Maximum  Maximum  Time of Max    Reported
                                   Depth    Depth      HGL   Occurrence   Max Depth
  Node                 Type       Meters   Meters   Meters  days hr:min      Meters
  ---------------------------------------------------------------------------------
  WS01000070           JUNCTION     0.00     0.00     0.00     0  00:00        0.00
  WS01000323           JUNCTION     0.00     0.00     0.00     0  00:00        0.00
  WS01000533           JUNCTION     0.00     0.00     6.86     0  00:00        0.00
  WS01005172           JUNCTION     0.00     0.00     0.00     0  00:00        0.00
  WS01005181           JUNCTION     0.00     0.00     0.00     0  00:00        0.00
  WS01009841           JUNCTION     0.00     0.00     0.00     0  00:00        0.00
  WS02000078           JUNCTION     0.00     0.00     0.00     0  00:00        0.00
  WS02000112           JUNCTION     0.00     0.00     0.00     0  00:00        0.00
  WS02000136           JUNCTION     0.00     0.00     0.00     0  00:00        0.00
  WS02001211           JUNCTION     0.65     0.93     5.77     0  02:03        0.93
  WS02001212           JUNCTION     0.65     1.00     5.80     0  02:04        0.96
  WS02001213           JUNCTION     0.75     1.20     5.90     0  02:01        1.08
  WS02003059           JUNCTION     0.77     3.38     8.03     0  01:59        1.10
  WS02003060           JUNCTION     0.84     2.04     6.59     0  02:01        1.18
  WS02003066           JUNCTION     0.39     0.60     5.90     0  02:01        0.58
  WS02003067           JUNCTION     0.65     0.95     6.27     0  02:18        0.92
  WS02003071           JUNCTION     0.88     2.10     6.50     0  02:01        1.17
  WS02003072           JUNCTION     0.76     1.09     5.46     0  02:01        1.06
  WS02003073           JUNCTION     0.83     1.88     6.12     0  02:00        1.18
  WS02003076           JUNCTION     0.76     1.10     5.33     0  03:09        1.09
  WS02003077           JUNCTION     0.17     0.38     5.39     0  03:10        0.35
  WS02003078           JUNCTION     0.10     0.20     7.10     0  01:57        0.19
  WS02003079           JUNCTION     0.34     0.55     7.46     0  01:59        0.54
  WS02003093           JUNCTION     0.19     0.36     7.70     0  01:57        0.36
  WS02003094           JUNCTION     0.30     0.48     7.70     0  01:58        0.48
  WS02003098           JUNCTION     0.26     0.48     7.65     0  01:57        0.48
  WS02003099           JUNCTION     0.38     0.62     7.66     0  01:58        0.62
  WS02003102           JUNCTION     0.36     0.60     7.63     0  01:58        0.60
  WS02003103           JUNCTION     0.38     0.61     7.58     0  01:58        0.61
  WS02003104           JUNCTION     0.37     0.60     7.56     0  01:59        0.60
  WS02003106           JUNCTION     0.37     0.58     7.51     0  01:58        0.58
  WS02004050           JUNCTION     0.55     0.75     4.97     0  02:02        0.75
  WS02004053           JUNCTION     0.00     0.00     0.00     0  00:00        0.00
  WS02004136           JUNCTION     0.17     0.18     6.91     0  01:17        0.18
  WS02004139           JUNCTION     0.54     0.85     5.81     0  02:03        0.82
  WS02004401           JUNCTION     0.85     1.44     7.44     0  01:56        1.42
  WS02004402           JUNCTION     0.86     1.45     7.41     0  01:56        1.44
  WS02004403           JUNCTION     0.85     1.44     7.37     0  01:56        1.44
  WS02004404           JUNCTION     0.92     1.50     7.35     0  01:56        1.49
  WS02004405           JUNCTION     0.91     1.48     7.32     0  01:56        1.48
  WS02004406           JUNCTION     0.88     1.43     7.26     0  01:56        1.42
  WS02004407           JUNCTION     0.82     1.33     7.13     0  01:56        1.30
  WS02004409           JUNCTION     0.79     1.27     7.04     0  01:56        1.22
  WS02004410           JUNCTION     0.74     1.18     6.90     0  01:56        1.11
  WS02004411           JUNCTION     0.68     1.07     6.75     0  01:56        0.99
  WS02004412           JUNCTION     0.60     0.90     6.54     0  01:56        0.88
  WS02004413           JUNCTION     0.62     0.89     6.36     0  01:58        0.89
  WS02004997           JUNCTION     6.30     6.90     8.51     0  01:31        6.74
  WS02005192           JUNCTION     0.33     1.68     9.55     0  01:56        0.74
  WS02005193           JUNCTION     0.33     1.36     9.18     0  01:56        0.71
  WS02005196           JUNCTION     0.33     1.63     9.48     0  01:56        0.73
  WS02006109           JUNCTION     0.84     2.22     8.84     0  01:55        1.46
  WS02006110           JUNCTION     0.77     2.46     9.06     0  01:55        1.37
  WS02006111           JUNCTION     0.55     2.68     9.26     0  01:55        1.12
  WS02006112           JUNCTION     0.86     2.68     8.80     0  01:55        1.45
  WS02006113           JUNCTION     0.69     2.57     9.16     0  01:55        1.29
  WS02006115           JUNCTION     0.82     2.23     8.33     0  01:55        1.41
  WS02006116           JUNCTION     0.85     1.93     7.97     0  01:55        1.41
  WS02006183           JUNCTION     0.00     0.00     0.00     0  00:00        0.00
  WS02006228           JUNCTION     0.89     1.99     8.64     0  01:55        1.53
  WS02006229           JUNCTION     0.86     1.74     8.43     0  01:55        1.50
  WS02006230           JUNCTION     0.85     1.56     8.31     0  01:56        1.50
  WS02006231           JUNCTION     0.75     1.45     8.35     0  01:56        1.39
  WS02006232           JUNCTION     0.68     1.36     8.39     0  01:56        1.29
  WS02006234           JUNCTION     0.60     1.23     8.39     0  01:56        1.17
  WS02006235           JUNCTION     0.63     1.23     8.40     0  01:56        1.17
  WS02006238           JUNCTION     0.63     1.21     8.39     0  01:56        1.16
  WS02006239           JUNCTION     0.63     1.33     8.54     0  01:54        1.13
  WS02006242           JUNCTION     0.61     1.45     8.75     0  01:54        1.05
  WS02006240           JUNCTION     0.58     2.10     9.39     0  01:54        1.05
  WS02006243           JUNCTION     0.53     1.48     8.90     0  01:54        0.94
  WS02006245           JUNCTION     0.51     1.34     8.83     0  01:54        0.88
  WS02006247           JUNCTION     0.52     1.03     8.54     0  01:54        0.86
  WS02006248           JUNCTION     0.45     0.79     8.38     0  01:56        0.78
  WS02006249           JUNCTION     0.46     1.01     8.61     0  01:56        0.80
  WS02006251           JUNCTION     0.42     1.29     8.96     0  01:56        0.81
  WS02006253           JUNCTION     0.31     1.38     9.18     0  01:56        0.68
  WS02618401           JUNCTION     0.00     0.00     0.00     0  00:00        0.00
  WS8802               JUNCTION     0.00     0.00     4.38     0  00:00        0.00
  WSA1649              JUNCTION     0.00     0.00     0.00     0  00:00        0.00
  WSF200               JUNCTION     0.40     0.65     5.75     0  01:57        0.63
  XR-Inflow            JUNCTION     6.11     6.55     8.36     0  01:31        6.55
  WS02004114           JUNCTION     6.29     7.07     8.67     0  01:31        6.73
  outfall-2            OUTFALL      0.00     0.00     7.00     0  00:00        0.00
  outfall-5            OUTFALL      0.04     0.18     7.85     0  01:57        0.18
  outfall-14           OUTFALL      0.00     0.00     7.66     0  00:00        0.00
  outfall-16           OUTFALL      0.00     0.00     8.39     0  00:00        0.00
  12                   OUTFALL      0.54     0.74     0.74     0  02:02        0.74
  XR-storage           STORAGE      7.38     8.22     8.72     0  01:31        7.84
  CC-storage           STORAGE      5.20     5.63     8.81     0  01:30        5.63
  JK-storage           STORAGE      4.36     4.80     7.80     0  01:34        4.80
  
  
  *******************
  Node Inflow Summary
  *******************
  
  -------------------------------------------------------------------------------------------------
                                  Maximum  Maximum                  Lateral       Total        Flow
                                  Lateral    Total  Time of Max      Inflow      Inflow     Balance
                                   Inflow   Inflow   Occurrence      Volume      Volume       Error
  Node                 Type           MLD      MLD  days hr:min    10^6 ltr    10^6 ltr     Percent
  -------------------------------------------------------------------------------------------------
  WS01000070           JUNCTION      0.00     0.00     0  00:00           0           0       0.000 ltr
  WS01000323           JUNCTION      0.00     0.00     0  00:00           0           0       0.000 ltr
  WS01000533           JUNCTION      0.00     0.00     0  00:00           0           0       0.000 ltr
  WS01005172           JUNCTION      0.00     0.00     0  00:00           0           0       0.000 ltr
  WS01005181           JUNCTION      0.00     0.00     0  00:00           0           0       0.000 ltr
  WS01009841           JUNCTION      0.00     0.00     0  00:00           0           0       0.000 ltr
  WS02000078           JUNCTION      0.00     0.00     0  00:00           0           0       0.000 ltr
  WS02000112           JUNCTION      0.00     0.00     0  00:00           0           0       0.000 ltr
  WS02000136           JUNCTION      0.00     0.00     0  00:00           0           0       0.000 ltr
  WS02001211           JUNCTION      0.25    44.35     0  02:03      0.0407         4.9       0.575
  WS02001212           JUNCTION      0.21    46.42     0  02:04      0.0346        4.91       0.376
  WS02001213           JUNCTION      0.30    48.26     0  02:44      0.0489        4.94       0.466
  WS02003059           JUNCTION      0.23    47.97     0  02:44      0.0378        4.95       0.725
  WS02003060           JUNCTION      0.16   220.11     0  02:01      0.0252        16.6       0.335
  WS02003066           JUNCTION      0.08   214.28     0  01:57      0.0122        11.7       0.175
  WS02003067           JUNCTION      0.26   180.27     0  01:57      0.0395        11.7       0.094
  WS02003071           JUNCTION      0.35   210.73     0  02:02      0.0538        16.6       0.337
  WS02003072           JUNCTION      0.24   210.98     0  02:02      0.0382        16.6       0.225
  WS02003073           JUNCTION      0.07   260.25     0  02:02     0.00978        18.7       0.188
  WS02003076           JUNCTION      0.72   260.74     0  02:01        0.12        18.8       0.140
  WS02003077           JUNCTION      0.04    52.26     0  02:01      0.0059        2.13       0.006
  WS02003078           JUNCTION      0.03    59.59     0  01:59     0.00419        2.12       0.036
  WS02003079           JUNCTION      0.04    43.86     0  01:59     0.00561        2.12       0.175
  WS02003093           JUNCTION      0.02     1.01     0  01:49     0.00306     0.00776       9.727
  WS02003094           JUNCTION     24.54    24.54     0  01:55        1.26        1.27       0.467
  WS02003098           JUNCTION      0.02    23.99     0  01:57     0.00293        1.26       0.329
  WS02003099           JUNCTION      0.07    24.03     0  01:58      0.0109        1.27       0.659
  WS02003102           JUNCTION     21.72    43.61     0  01:58       0.864        2.12       0.353
  WS02003103           JUNCTION      0.02    43.72     0  01:58     0.00239        2.12       0.228
  WS02003104           JUNCTION      0.02    43.67     0  01:59     0.00302        2.12       0.192
  WS02003106           JUNCTION      0.05    43.73     0  01:57     0.00727        2.12       0.230
  WS02004050           JUNCTION      0.72   272.96     0  02:03       0.119        18.9       0.439
  WS02004053           JUNCTION      0.00     0.00     0  00:00           0           0       0.000 ltr
  WS02004136           JUNCTION      0.44    32.92     0  01:14      0.0703        4.82       0.062
  WS02004139           JUNCTION      0.38    33.69     0  01:17      0.0619        4.88       0.387
  WS02004401           JUNCTION      0.05    97.58     0  01:55     0.00897        6.93       0.229
  WS02004402           JUNCTION      0.22    94.16     0  01:57      0.0335        6.95       0.209
  WS02004403           JUNCTION      0.23    94.38     0  01:57      0.0349        6.97       0.188
  WS02004404           JUNCTION      0.24    94.61     0  01:57      0.0365        6.99       0.148
  WS02004405           JUNCTION     14.98   108.34     0  01:56       0.591        7.57       0.210
  WS02004406           JUNCTION     25.01   133.15     0  01:56        2.08        9.63       0.264
  WS02004407           JUNCTION      0.11   133.23     0  01:57      0.0171        9.63       0.236
  WS02004409           JUNCTION     17.21   150.40     0  01:57        1.07        10.7       0.189
  WS02004410           JUNCTION      0.15   150.62     0  01:57      0.0226        10.7       0.189
  WS02004411           JUNCTION      0.25   151.58     0  01:57      0.0379        10.7       0.168
  WS02004412           JUNCTION     24.60   175.78     0  01:56       0.993        11.7       0.135
  WS02004413           JUNCTION      0.11   178.99     0  01:57      0.0172        11.7       0.129
  WS02004997           JUNCTION      0.42    45.24     0  01:31      0.0693        4.83       0.800
  WS02005192           JUNCTION     24.86    24.86     0  01:54        1.01        1.01       0.065
  WS02005193           JUNCTION      0.09    25.34     0  01:56      0.0146        1.04       0.131
  WS02005196           JUNCTION      0.12    24.94     0  01:53       0.019        1.02       0.158
  WS02006109           JUNCTION      0.08    74.74     0  01:55      0.0135        5.86       0.273
  WS02006110           JUNCTION      0.08    74.82     0  01:55      0.0132        5.86       0.250
  WS02006111           JUNCTION      0.24   100.84     0  01:55      0.0366         6.9       0.086
  WS02006112           JUNCTION      0.18    94.92     0  01:55      0.0273        6.92       0.221
  WS02006113           JUNCTION     25.32    99.92     0  01:55        1.03        6.87       0.167
  WS02006115           JUNCTION      0.08    95.61     0  01:55      0.0134        6.92       0.236
  WS02006116           JUNCTION      0.24    96.96     0  01:55       0.036        6.94       0.228
  WS02006183           JUNCTION      0.00     0.00     0  00:00           0           0       0.000 ltr
  WS02006228           JUNCTION     37.75    74.68     0  01:55        2.72        5.86       0.204
  WS02006229           JUNCTION      0.13    48.97     0  01:55        0.02        3.14       0.323
  WS02006230           JUNCTION      0.07    50.41     0  01:54      0.0116        3.13       0.338
  WS02006231           JUNCTION      0.13    50.28     0  01:54      0.0205        3.13       0.169
  WS02006232           JUNCTION     18.14    50.06     0  01:54       0.722        3.11       0.148
  WS02006234           JUNCTION      0.14    34.64     0  01:53      0.0216        2.39       0.154
  WS02006235           JUNCTION      0.14    35.93     0  01:53      0.0223        2.37       0.106
  WS02006238           JUNCTION      0.15    37.72     0  01:53      0.0235        2.35       0.141
  WS02006239           JUNCTION      0.11    39.59     0  01:53      0.0174        2.34       0.255
  WS02006242           JUNCTION      0.08    42.96     0  01:54      0.0129        2.32       0.324
  WS02006240           JUNCTION      0.06    41.50     0  01:54     0.00992        2.33       0.231
  WS02006243           JUNCTION      0.17    43.28     0  01:54      0.0269        2.32       0.214
  WS02006245           JUNCTION      0.07    44.19     0  01:54      0.0113        2.29       0.180
  WS02006247           JUNCTION     14.07    44.52     0  01:54        1.13        2.28       0.173
  WS02006248           JUNCTION      0.12    34.34     0  01:57      0.0192        1.48       0.161
  WS02006249           JUNCTION      0.19    34.08     0  01:57      0.0286        1.46       0.223
  WS02006251           JUNCTION      7.62    33.89     0  01:56       0.386        1.44       0.185
  WS02006253           JUNCTION      0.11    24.94     0  01:56      0.0173        1.05       0.080
  WS02618401           JUNCTION      0.00     0.00     0  00:00           0           0       0.000 ltr
  WS8802               JUNCTION      0.00     0.00     0  00:00           0           0       0.000 ltr
  WSA1649              JUNCTION      0.00     0.00     0  00:00           0           0       0.000 ltr
  WSF200               JUNCTION      0.14   199.94     0  02:01      0.0216        11.7      -0.005
  XR-Inflow            JUNCTION    440.97   440.97     0  02:10        30.2        30.2       0.077
  WS02004114           JUNCTION      0.57    45.72     0  01:31      0.0916        4.88       0.456
  outfall-2            OUTFALL       0.00     0.00     0  00:00           0           0       0.000 ltr
  outfall-5            OUTFALL       0.00    31.53     0  01:57           0       0.327       0.000
  outfall-14           OUTFALL       0.00     0.00     0  00:00           0           0       0.000 ltr
  outfall-16           OUTFALL       0.00     0.00     0  00:00           0           0       0.000 ltr
  12                   OUTFALL       0.00   246.92     0  02:02           0        18.8       0.000
  XR-storage           STORAGE       0.00    45.57     0  01:31           0        4.86       0.967
  CC-storage           STORAGE      69.60    69.60     0  01:56        3.18        3.18       0.012
  JK-storage           STORAGE      71.75    71.75     0  01:56        3.21        3.21       0.008
  
  
  **********************
  Node Surcharge Summary
  **********************
  
  Surcharging occurs when water rises above the top of the highest conduit.
  ---------------------------------------------------------------------
                                               Max. Height   Min. Depth
                                   Hours       Above Crown    Below Rim
  Node                 Type      Surcharged         Meters       Meters
  ---------------------------------------------------------------------
  WS01000070           JUNCTION        4.00          0.000        0.000
  WS01000323           JUNCTION        4.00          0.000        0.000
  WS01000533           JUNCTION        4.00          0.000        2.147
  WS01005172           JUNCTION        4.00          0.000        0.000
  WS01005181           JUNCTION        4.00          0.000        0.000
  WS01009841           JUNCTION        4.00          0.000        0.000
  WS02000078           JUNCTION        4.00          0.000        0.000
  WS02000112           JUNCTION        4.00          0.000        0.000
  WS02000136           JUNCTION        4.00          0.000        0.000
  WS02001213           JUNCTION        0.08          0.196        3.166
  WS02003059           JUNCTION        0.19          2.380        1.337
  WS02003060           JUNCTION        0.01          0.844        2.388
  WS02003071           JUNCTION        0.01          0.904        2.653
  WS02003073           JUNCTION        0.01          0.685        3.390
  WS02004053           JUNCTION        4.00          0.000        0.000
  WS02004402           JUNCTION        0.99          0.453        1.287
  WS02004403           JUNCTION        0.98          0.442        1.588
  WS02004404           JUNCTION        1.17          0.497        2.283
  WS02004405           JUNCTION        1.16          0.485        2.315
  WS02004406           JUNCTION        1.08          0.426        2.024
  WS02004407           JUNCTION        0.71          0.331        2.012
  WS02004409           JUNCTION        0.47          0.275        2.085
  WS02004410           JUNCTION        0.19          0.175        2.365
  WS02004411           JUNCTION        0.01          0.074        2.456
  WS02004997           JUNCTION        3.88          6.000        0.000
  WS02005192           JUNCTION        0.09          1.077        1.742
  WS02005193           JUNCTION        0.08          0.765        1.852
  WS02005196           JUNCTION        0.08          1.031        1.675
  WS02006109           JUNCTION        1.18          1.416        0.422
  WS02006110           JUNCTION        0.99          1.657        0.188
  WS02006111           JUNCTION        0.47          1.877        0.000
  WS02006112           JUNCTION        0.92          1.683        0.000
  WS02006113           JUNCTION        0.80          1.774        0.159
  WS02006115           JUNCTION        0.85          1.231        1.068
  WS02006116           JUNCTION        0.93          0.935        1.415
  WS02006183           JUNCTION        4.00          0.000        0.000
  WS02006228           JUNCTION        1.26          1.193        1.038
  WS02006229           JUNCTION        1.22          0.943        1.511
  WS02006231           JUNCTION        1.20          0.749        0.794
  WS02006232           JUNCTION        1.09          0.655        0.834
  WS02006234           JUNCTION        0.93          0.529        0.728
  WS02006235           JUNCTION        0.96          0.526        0.768
  WS02006238           JUNCTION        0.96          0.514        0.920
  WS02006239           JUNCTION        0.96          0.629        0.700
  WS02006242           JUNCTION        0.93          0.752        0.097
  WS02006240           JUNCTION        0.88          1.403        0.000
  WS02006243           JUNCTION        0.79          0.780        0.000
  WS02006245           JUNCTION        0.68          0.645        0.210
  WS02006247           JUNCTION        0.69          0.330        0.430
  WS02006249           JUNCTION        0.33          0.305        0.083
  WS02006251           JUNCTION        0.14          0.593        0.917
  WS02006253           JUNCTION        0.01          0.685        1.769
  WS02618401           JUNCTION        4.00          0.000        0.000
  WS8802               JUNCTION        4.00          0.000        4.942
  WSA1649              JUNCTION        4.00          0.000        0.000
  XR-Inflow            JUNCTION        3.87          5.650        0.000
  WS02004114           JUNCTION        3.88          6.166        0.349
  XR-storage           STORAGE         3.96          7.320        0.000
  
  
  *********************
  Node Flooding Summary
  *********************
  
  Flooding refers to all water that overflows a node, whether it ponds or not.
  --------------------------------------------------------------------------
                                                             Total   Maximum
                                 Maximum   Time of Max       Flood    Ponded
                        Hours       Rate    Occurrence      Volume     Depth
  Node                 Flooded       MLD   days hr:min    10^6 ltr    Meters
  --------------------------------------------------------------------------
  WS02004997              0.01      3.79      0  01:31       0.000     0.000
  WS02006111              0.01     10.00      0  01:55       0.000     0.000
  WS02006112              0.01      1.29      0  01:55       0.000     0.000
  WS02006240              0.01      5.01      0  01:54       0.000     0.000
  WS02006243              0.01      9.29      0  01:54       0.000     0.000
  XR-Inflow               2.48    409.44      0  02:10      25.459     0.000
  XR-storage              0.01     10.40      0  01:31       0.000     0.500
  CC-storage              2.49     69.60      0  01:56       3.023     0.000
  JK-storage              2.43     71.75      0  01:56       3.071     0.000
  
  
  **********************
  Storage Volume Summary
  **********************
  
  --------------------------------------------------------------------------------------------------
                         Average     Avg  Evap Exfil       Maximum     Max    Time of Max    Maximum
                          Volume    Pcnt  Pcnt  Pcnt        Volume    Pcnt     Occurrence    Outflow
  Storage Unit           1000 m3    Full  Loss  Loss       1000 m3    Full    days hr:min        MLD
  --------------------------------------------------------------------------------------------------
  XR-storage               0.059      94     0     0         0.063     100       0  01:31      32.48
  CC-storage               0.147      92     0     0         0.159     100       0  01:30       0.00
  JK-storage               0.123      91     0     0         0.136     100       0  01:34       0.00
  
  
  ***********************
  Outfall Loading Summary
  ***********************
  
  ---------------------------------------------------------------------------------------------------------------------------------
                         Flow       Avg       Max       Total         Total         Total         Total         Total         Total
                         Freq      Flow      Flow      Volume           COD         NH3-N            TN            TP            SS
  Outfall Node           Pcnt       MLD       MLD    10^6 ltr            kg            kg            kg            kg            kg
  ---------------------------------------------------------------------------------------------------------------------------------
  outfall-2              0.00      0.00      0.00       0.000         0.000         0.000         0.000         0.000         0.000
  outfall-5             42.32     12.55     31.53       0.327        95.516         0.000         0.000         0.000         0.000
  outfall-14             0.00      0.00      0.00       0.000         0.000         0.000         0.000         0.000         0.000
  outfall-16             0.00      0.00      0.00       0.000         0.000         0.000         0.000         0.000         0.000
  12                    99.99    163.37    246.92      18.810      3488.923         0.000         0.000         0.000         0.000
  ---------------------------------------------------------------------------------------------------------------------------------
  System                28.46    175.91    246.92      19.137      3584.439         0.000         0.000         0.000         0.000
  
  
  ********************
  Link Flow Summary
  ********************
  
  -----------------------------------------------------------------------------
                                 Maximum  Time of Max   Maximum    Max/    Max/
                                  |Flow|   Occurrence   |Veloc|    Full    Full
  Link                 Type          MLD  days hr:min     m/sec    Flow   Depth
  -----------------------------------------------------------------------------
  WSL49                CONDUIT    260.02     0  02:01      3.08    3.23    0.94
  WSL1465              CONDUIT     58.37     0  02:45      1.62    0.53    1.00
  WSL1472              CONDUIT    210.76     0  02:02      2.31    2.40    0.92
  WSL1475              CONDUIT    272.25     0  02:03      3.56    2.91    0.62
  WSL1476              CONDUIT     52.68     0  02:01      1.70    0.26    0.74
  WSL1477              CONDUIT     59.56     0  01:59      3.89    2.35    0.60
  WSL1490              CONDUIT     46.21     0  02:04      1.36    0.75    0.96
  WSL1491              CONDUIT     47.97     0  02:44      1.37    0.28    1.00
  WSL1492              CONDUIT     47.75     0  02:44      1.34    0.74    1.00
  WSL1507              CONDUIT      0.99     0  01:49      0.13    0.01    0.53
  WSL1508              CONDUIT     23.97     0  01:57      1.03    0.68    0.60
  WSL1512              CONDUIT     23.96     0  01:58      0.67    0.17    0.55
  WSL1513              CONDUIT     24.09     0  02:00      0.69    1.42    0.76
  WSL1515              CONDUIT    214.21     0  01:57      3.51    2.09    0.60
  WSL1516              CONDUIT     52.22     0  02:01      6.65    0.18    0.42
  WSL1518              CONDUIT     43.70     0  01:58      1.24    0.86    0.76
  WSL1519              CONDUIT     43.69     0  01:57      1.28    1.09    0.73
  WSL1521              CONDUIT     43.82     0  01:59      1.35    1.26    0.70
  WSL1543              CONDUIT     43.65     0  01:59      1.24    1.36    0.76
  WSL1961              CONDUIT     33.31     0  01:17      2.58    0.07    0.51
  WSL1964              CONDUIT     44.11     0  02:03      1.27    0.24    0.73
  WSL2010              CONDUIT     94.15     0  01:57      1.39    1.20    1.00
  WSL2011              CONDUIT     94.37     0  01:57      1.39    0.61    1.00
  WSL2012              CONDUIT     94.61     0  01:57      1.39    1.44    1.00
  WSL2013              CONDUIT    108.30     0  01:56      1.60    2.69    1.00
  WSL2014              CONDUIT    133.12     0  01:57      1.96    2.13    1.00
  WSL2015              CONDUIT    133.22     0  01:57      1.96    1.79    1.00
  WSL2016              CONDUIT    150.48     0  01:57      2.22    1.73    1.00
  WSL2017              CONDUIT    151.33     0  01:57      2.23    1.84    1.00
  WSL2018              CONDUIT    178.88     0  01:57      2.85    1.07    0.88
  WSL2019              CONDUIT    180.01     0  01:57      2.96    1.06    0.91
  WSL2028              CONDUIT     93.94     0  01:57      1.38    1.00    1.00
  WSL2029              CONDUIT    152.33     0  01:56      2.37    1.93    0.95
  WSL2038              CONDUIT     24.82     0  01:53      1.24    1.24    1.00
  WSL2039              CONDUIT     24.83     0  01:56      1.51    1.28    1.00
  WSL2041              CONDUIT     25.25     0  01:56      1.34    1.24    1.00
  WSL2294              CONDUIT     74.74     0  01:55      1.72    2.51    1.00
  WSL2295              CONDUIT     74.92     0  01:55      1.76    3.37    1.00
  WSL2296              CONDUIT     94.75     0  01:55      2.32    0.53    1.00
  WSL2297              CONDUIT     95.53     0  01:55      1.41    1.83    1.00
  WSL2298              CONDUIT    100.60     0  01:55      2.65    4.63    1.00
  WSL2301              CONDUIT     96.73     0  01:55      1.43    0.89    1.00
  WSL2302              CONDUIT     97.52     0  01:55      1.44    1.20    1.00
  WSL2441              CONDUIT     74.66     0  01:55      1.72    1.91    1.00
  WSL2442              CONDUIT     48.84     0  01:55      1.47    1.25    1.00
  WSL2443              CONDUIT     50.33     0  01:54      1.51    0.78    1.00
  WSL2444              CONDUIT     50.15     0  01:54      1.67    0.80    1.00
  WSL2446              CONDUIT     32.30     0  01:54      1.37    0.55    1.00
  WSL2447              CONDUIT     34.50     0  01:53      1.40    1.78    1.00
  WSL2448              CONDUIT     35.78     0  01:53      1.35    1.01    1.00
  WSL2449              CONDUIT     37.57     0  01:53      1.33    1.31    1.00
  WSL2450              CONDUIT     39.47     0  01:53      1.37    0.82    1.00
  WSL2451              CONDUIT     41.44     0  01:54      1.36    2.70    1.00
  WSL2452              CONDUIT     42.88     0  01:54      1.39    0.82    1.00
  WSL2454              CONDUIT     43.11     0  01:54      1.51    1.01    1.00
  WSL2478              CONDUIT     44.12     0  01:54      1.47    1.56    1.00
  WSL2479              CONDUIT     31.18     0  01:54      1.07    0.59    1.00
  WSL2480              CONDUIT     34.22     0  01:57      1.16    1.58    1.00
  WSL2482              CONDUIT     33.89     0  01:57      1.19    0.88    1.00
  WSL2484              CONDUIT     26.55     0  01:56      1.14    0.37    1.00
  WSL2493              CONDUIT     48.94     0  01:55      1.13    0.82    1.00
  WSL2867              CONDUIT    199.82     0  02:01      4.58    0.41    0.50
  WSL2868              CONDUIT    187.77     0  01:57      2.68    0.36    0.75
  WSL348               CONDUIT     44.82     0  01:31      1.86    0.41    1.00
  WSL175               CONDUIT     45.15     0  01:31      2.30    1.52    1.00
  WSL1467              CONDUIT    210.42     0  02:02      2.17    1.12    1.00
  WSL1473              CONDUIT    216.78     0  02:02      2.51    0.89    0.90
  XRpipe               CONDUIT     45.57     0  01:31      2.53    0.11    1.00
  8                    CONDUIT     31.53     0  01:57      6.66    0.42    0.45
  19                   CONDUIT      0.00     0  00:00      0.00    0.00    0.00
  17                   CONDUIT      0.00     0  00:00      0.00    0.00    0.00
  4                    CONDUIT      0.00     0  00:00      0.00    0.00    0.00
  2                    CONDUIT    246.92     0  02:02      4.61    0.89    0.74
  XR-Pump-1            PUMP         8.12     0  00:09              1.00
  XR-Pump-3            PUMP         8.12     0  00:10              1.00
  XR-Pump-2            PUMP         8.12     0  00:10              1.00
  XR-Pump-4            PUMP         8.12     0  01:14              1.00
  CC-Pump-1            PUMP         0.00     0  00:00              0.00
  CC-Pump-2            PUMP         0.00     0  00:00              0.00
  JK-Pump-1            PUMP         0.00     0  00:00              0.00
  JK-Pump-2            PUMP         0.00     0  00:00              0.00
  
  
  ***************************
  Flow Classification Summary
  ***************************
  
  -------------------------------------------------------------------------------------
                      Adjusted    ---------- Fraction of Time in Flow Class ---------- 
                       /Actual         Up    Down  Sub   Sup   Up    Down  Norm  Inlet 
  Conduit               Length    Dry  Dry   Dry   Crit  Crit  Crit  Crit  Ltd   Ctrl  
  -------------------------------------------------------------------------------------
  WSL49                   1.00   0.00  0.00  0.00  1.00  0.00  0.00  0.00  0.00  0.00
  WSL1465                 1.00   0.00  0.00  0.00  1.00  0.00  0.00  0.00  0.10  0.00
  WSL1472                 1.00   0.00  0.00  0.00  1.00  0.00  0.00  0.00  0.00  0.00
  WSL1475                 1.00   0.00  0.00  0.00  0.14  0.86  0.00  0.00  0.01  0.00
  WSL1476                 1.00   0.00  0.00  0.00  1.00  0.00  0.00  0.00  0.90  0.00
  WSL1477                 1.00   0.00  0.00  0.00  0.00  1.00  0.00  0.00  0.29  0.00
  WSL1490                 1.00   0.00  0.00  0.00  1.00  0.00  0.00  0.00  0.00  0.00
  WSL1491                 1.00   0.00  0.00  0.00  1.00  0.00  0.00  0.00  0.05  0.00
  WSL1492                 1.00   0.00  0.00  0.00  1.00  0.00  0.00  0.00  0.00  0.00
  WSL1507                 1.00   0.00  0.00  0.00  1.00  0.00  0.00  0.00  0.37  0.00
  WSL1508                 1.00   0.00  0.00  0.00  1.00  0.00  0.00  0.00  0.00  0.00
  WSL1512                 1.00   0.00  0.00  0.00  1.00  0.00  0.00  0.00  0.54  0.00
  WSL1513                 1.00   0.00  0.00  0.00  1.00  0.00  0.00  0.00  0.00  0.00
  WSL1515                 1.00   0.00  0.00  0.00  0.14  0.86  0.00  0.00  0.03  0.00
  WSL1516                 1.00   0.00  0.00  0.00  0.00  1.00  0.00  0.00  0.90  0.00
  WSL1518                 1.00   0.00  0.00  0.00  1.00  0.00  0.00  0.00  0.35  0.00
  WSL1519                 1.00   0.00  0.00  0.00  1.00  0.00  0.00  0.00  0.30  0.00
  WSL1521                 1.00   0.00  0.00  0.00  1.00  0.00  0.00  0.00  0.02  0.00
  WSL1543                 1.00   0.00  0.00  0.00  1.00  0.00  0.00  0.00  0.02  0.00
  WSL1961                 1.00   0.00  0.00  0.00  0.60  0.40  0.00  0.00  0.98  0.00
  WSL1964                 1.00   0.00  0.00  0.00  1.00  0.00  0.00  0.00  0.05  0.00
  WSL2010                 1.00   0.00  0.00  0.00  1.00  0.00  0.00  0.00  0.00  0.00
  WSL2011                 1.00   0.00  0.00  0.00  1.00  0.00  0.00  0.00  0.27  0.00
  WSL2012                 1.00   0.00  0.00  0.00  1.00  0.00  0.00  0.00  0.00  0.00
  WSL2013                 1.00   0.00  0.00  0.00  1.00  0.00  0.00  0.00  0.00  0.00
  WSL2014                 1.00   0.00  0.00  0.00  1.00  0.00  0.00  0.00  0.00  0.00
  WSL2015                 1.00   0.00  0.00  0.00  1.00  0.00  0.00  0.00  0.02  0.00
  WSL2016                 1.00   0.00  0.00  0.00  1.00  0.00  0.00  0.00  0.01  0.00
  WSL2017                 1.00   0.00  0.00  0.00  1.00  0.00  0.00  0.00  0.04  0.00
  WSL2018                 1.00   0.00  0.00  0.00  0.50  0.50  0.00  0.00  0.09  0.00
  WSL2019                 1.00   0.00  0.00  0.00  0.82  0.18  0.00  0.00  0.10  0.00
  WSL2028                 1.00   0.00  0.00  0.00  1.00  0.00  0.00  0.00  0.06  0.00
  WSL2029                 1.00   0.00  0.00  0.00  0.96  0.04  0.00  0.00  0.00  0.00
  WSL2038                 1.00   0.00  0.00  0.00  1.00  0.00  0.00  0.00  0.01  0.00
  WSL2039                 1.00   0.00  0.00  0.00  0.70  0.30  0.00  0.00  0.00  0.00
  WSL2041                 1.00   0.00  0.00  0.00  1.00  0.00  0.00  0.00  0.28  0.00
  WSL2294                 1.00   0.00  0.00  0.00  1.00  0.00  0.00  0.00  0.00  0.00
  WSL2295                 1.00   0.00  0.00  0.00  1.00  0.00  0.00  0.00  0.00  0.00
  WSL2296                 1.00   0.00  0.00  0.00  0.83  0.17  0.00  0.00  0.43  0.00
  WSL2297                 1.00   0.00  0.00  0.00  1.00  0.00  0.00  0.00  0.00  0.00
  WSL2298                 1.00   0.00  0.00  0.00  0.56  0.44  0.00  0.00  0.00  0.00
  WSL2301                 1.00   0.00  0.00  0.00  1.00  0.00  0.00  0.00  0.08  0.00
  WSL2302                 1.00   0.00  0.00  0.00  1.00  0.00  0.00  0.00  0.00  0.00
  WSL2441                 1.00   0.00  0.00  0.00  1.00  0.00  0.00  0.00  0.00  0.00
  WSL2442                 1.00   0.00  0.00  0.00  1.00  0.00  0.00  0.00  0.20  0.00
  WSL2443                 1.00   0.00  0.00  0.00  1.00  0.00  0.00  0.00  0.33  0.00
  WSL2444                 1.00   0.00  0.00  0.00  0.82  0.18  0.00  0.00  0.18  0.00
  WSL2446                 1.00   0.00  0.00  0.00  0.90  0.10  0.00  0.00  0.00  0.00
  WSL2447                 1.00   0.00  0.00  0.00  1.00  0.00  0.00  0.00  0.00  0.00
  WSL2448                 1.00   0.00  0.00  0.00  1.00  0.00  0.00  0.00  0.00  0.00
  WSL2449                 1.00   0.00  0.00  0.00  1.00  0.00  0.00  0.00  0.02  0.00
  WSL2450                 1.00   0.00  0.00  0.00  1.00  0.00  0.00  0.00  0.36  0.00
  WSL2451                 1.00   0.00  0.00  0.00  1.00  0.00  0.00  0.00  0.00  0.00
  WSL2452                 1.00   0.00  0.00  0.00  1.00  0.00  0.00  0.00  0.39  0.00
  WSL2454                 1.00   0.00  0.00  0.00  1.00  0.00  0.00  0.00  0.02  0.00
  WSL2478                 1.00   0.00  0.00  0.00  1.00  0.00  0.00  0.00  0.00  0.00
  WSL2479                 1.00   0.00  0.00  0.00  1.00  0.00  0.00  0.00  0.38  0.00
  WSL2480                 1.00   0.00  0.00  0.00  1.00  0.00  0.00  0.00  0.00  0.00
  WSL2482                 1.00   0.00  0.00  0.00  1.00  0.00  0.00  0.00  0.36  0.00
  WSL2484                 1.00   0.00  0.00  0.00  1.00  0.00  0.00  0.00  0.64  0.00
  WSL2493                 1.00   0.00  0.00  0.00  1.00  0.00  0.00  0.00  0.05  0.00
  WSL2867                 1.00   0.00  0.00  0.00  0.00  1.00  0.00  0.00  0.15  0.00
  WSL2868                 1.00   0.00  0.00  0.00  0.96  0.04  0.00  0.00  0.47  0.00
  WSL348                  1.00   0.00  0.00  0.00  1.00  0.00  0.00  0.00  0.01  0.00
  WSL175                  1.00   0.00  0.00  0.00  1.00  0.00  0.00  0.00  0.00  0.00
  WSL1467                 1.00   0.00  0.00  0.00  1.00  0.00  0.00  0.00  0.06  0.00
  WSL1473                 1.00   0.00  0.00  0.00  1.00  0.00  0.00  0.00  0.06  0.00
  XRpipe                  1.00   0.00  0.00  0.00  1.00  0.00  0.00  0.00  0.00  0.00
  8                       1.00   0.58  0.00  0.00  0.00  0.42  0.00  0.00  0.06  0.00
  19                      1.00   1.00  0.00  0.00  0.00  0.00  0.00  0.00  0.00  0.00
  17                      1.00   1.00  0.00  0.00  0.00  0.00  0.00  0.00  0.00  0.00
  4                       1.00   1.00  0.00  0.00  0.00  0.00  0.00  0.00  0.00  0.00
  2                       1.00   0.00  0.00  0.00  0.00  1.00  0.00  0.00  0.20  0.00
  
  
  *************************
  Conduit Surcharge Summary
  *************************
  
  ----------------------------------------------------------------------------
                                                           Hours        Hours 
                         --------- Hours Full --------   Above Full   Capacity
  Conduit                Both Ends  Upstream  Dnstream   Normal Flow   Limited
  ----------------------------------------------------------------------------
  WSL49                       0.01      0.01      0.01      2.23         0.01
  WSL1465                     0.18      0.19      0.64      0.01         0.01
  WSL1472                     0.01      0.01      0.01      2.16         0.01
  WSL1475                     0.01      0.01      0.01      2.15         0.01
  WSL1476                     0.01      0.01      1.71      0.01         0.01
  WSL1477                     0.01      0.01      0.01      0.73         0.01
  WSL1491                     0.01      0.01      0.08      0.01         0.01
  WSL1492                     0.08      0.08      0.19      0.01         0.02
  WSL1513                     0.01      0.01      0.01      0.52         0.01
  WSL1515                     0.01      0.01      0.01      1.39         0.01
  WSL1519                     0.01      0.01      0.01      0.16         0.01
  WSL1521                     0.01      0.01      0.01      0.32         0.01
  WSL1543                     0.01      0.01      0.01      0.39         0.01
  WSL2010                     0.98      0.99      0.98      1.15         0.97
  WSL2011                     0.98      0.98      1.17      0.01         0.01
  WSL2012                     1.16      1.17      1.16      1.38         1.15
  WSL2013                     1.08      1.16      1.08      2.17         1.08
  WSL2014                     0.71      1.08      0.71      1.99         0.71
  WSL2015                     0.47      0.71      0.47      1.68         0.47
  WSL2016                     0.19      0.47      0.19      1.59         0.19
  WSL2017                     0.01      0.19      0.01      1.68         0.01
  WSL2018                     0.01      0.01      0.01      0.08         0.01
  WSL2019                     0.01      0.01      0.01      0.07         0.01
  WSL2028                     0.93      0.93      0.99      0.01         0.05
  WSL2029                     0.01      0.01      0.01      1.74         0.01
  WSL2038                     0.08      0.09      0.08      0.22         0.08
  WSL2039                     0.07      0.08      0.07      0.23         0.07
  WSL2041                     0.08      0.08      0.08      0.21         0.08
  WSL2294                     0.99      1.18      0.99      2.19         0.99
  WSL2295                     0.80      0.99      0.80      2.21         0.80
  WSL2296                     0.47      0.47      1.29      0.01         0.01
  WSL2297                     0.85      0.92      0.85      1.67         0.84
  WSL2298                     0.47      0.80      0.47      2.28         0.47
  WSL2301                     0.85      0.85      0.93      0.01         0.01
  WSL2302                     0.93      0.93      0.93      0.99         0.90
  WSL2441                     1.18      1.26      1.18      1.95         1.18
  WSL2442                     1.33      1.33      1.37      0.05         0.07
  WSL2443                     1.20      1.20      1.33      0.01         0.01
  WSL2444                     1.09      1.09      1.20      0.01         0.01
  WSL2446                     0.93      0.93      1.09      0.01         0.01
  WSL2447                     0.93      0.96      0.93      1.55         0.88
  WSL2448                     0.96      0.96      0.96      0.01         0.01
  WSL2449                     0.96      0.96      0.96      0.64         0.42
  WSL2450                     0.88      0.88      0.96      0.01         0.01
  WSL2451                     0.88      0.93      0.88      1.90         0.86
  WSL2452                     0.79      0.79      0.93      0.01         0.01
  WSL2454                     0.68      0.68      0.79      0.01         0.01
  WSL2478                     0.68      0.69      0.68      0.55         0.15
  WSL2479                     0.33      0.33      0.69      0.01         0.01
  WSL2480                     0.33      0.33      0.33      0.40         0.27
  WSL2482                     0.14      0.14      0.33      0.01         0.01
  WSL2484                     0.01      0.01      0.14      0.01         0.01
  WSL2493                     1.22      1.22      1.26      0.01         0.01
  WSL2868                     0.01      0.01      0.01      0.01         0.01
  WSL348                      3.87      3.87      3.88      0.01         0.01
  WSL175                      3.88      3.88      3.88      2.68         2.74
  WSL1467                     0.01      0.01      0.01      0.32         0.01
  WSL1473                     0.01      0.01      0.01      0.01         0.01
  XRpipe                      3.88      3.88      3.96      0.01         0.01
  
  
  ***************
  Pumping Summary
  ***************
  
  ---------------------------------------------------------------------------------------------------------
                                                  Min       Avg       Max     Total     Power    % Time Off
                        Percent   Number of      Flow      Flow      Flow    Volume     Usage    Pump Curve
  Pump                 Utilized   Start-Ups       MLD       MLD       MLD  10^6 ltr     Kw-hr    Low   High
  ---------------------------------------------------------------------------------------------------------
  XR-Pump-1               96.12           1      0.00      8.12      8.12     1.301      5.23    0.0   64.5
  XR-Pump-3               91.20          14      0.00      8.12      8.12     1.234      4.93    0.0   68.0
  XR-Pump-2               95.80           1      0.00      8.12      8.12     1.296      5.21    0.0   64.7
  XR-Pump-4               67.95           3      0.00      8.12      8.12     0.919      3.48    0.0   91.3
  CC-Pump-1                0.00           0      0.00      0.00      0.00     0.000      0.00    0.0    0.0
  CC-Pump-2                0.00           0      0.00      0.00      0.00     0.000      0.00    0.0    0.0
  JK-Pump-1                0.00           0      0.00      0.00      0.00     0.000      0.00    0.0    0.0
  JK-Pump-2                0.00           0      0.00      0.00      0.00     0.000      0.00    0.0    0.0
  
  
  ***************************
  Link Pollutant Load Summary
  ***************************
  
  ------------------------------------------------------------------------------------------
                                 COD         NH3-N            TN            TP            SS
  Link                            kg            kg            kg            kg            kg
  ------------------------------------------------------------------------------------------
  WSL49                     3433.017         0.000         0.000         0.000         0.000
  WSL1465                    889.652         0.000         0.000         0.000         0.000
  WSL1472                   2971.775         0.000         0.000         0.000         0.000
  WSL1475                   3453.196         0.000         0.000         0.000         0.000
  WSL1476                    465.823         0.000         0.000         0.000         0.000
  WSL1477                    463.197         0.000         0.000         0.000         0.000
  WSL1490                    872.847         0.000         0.000         0.000         0.000
  WSL1491                    876.451         0.000         0.000         0.000         0.000
  WSL1492                    885.445         0.000         0.000         0.000         0.000
  WSL1507                      7.193         0.000         0.000         0.000         0.000
  WSL1508                    280.642         0.000         0.000         0.000         0.000
  WSL1512                    278.150         0.000         0.000         0.000         0.000
  WSL1513                    281.045         0.000         0.000         0.000         0.000
  WSL1515                   2073.276         0.000         0.000         0.000         0.000
  WSL1516                    462.633         0.000         0.000         0.000         0.000
  WSL1518                    463.738         0.000         0.000         0.000         0.000
  WSL1519                    463.335         0.000         0.000         0.000         0.000
  WSL1521                    463.938         0.000         0.000         0.000         0.000
  WSL1543                    461.612         0.000         0.000         0.000         0.000
  WSL1961                    857.045         0.000         0.000         0.000         0.000
  WSL1964                    867.661         0.000         0.000         0.000         0.000
  WSL2010                   1054.768         0.000         0.000         0.000         0.000
  WSL2011                   1059.417         0.000         0.000         0.000         0.000
  WSL2012                   1064.616         0.000         0.000         0.000         0.000
  WSL2013                   1185.553         0.000         0.000         0.000         0.000
  WSL2014                   1622.205         0.000         0.000         0.000         0.000
  WSL2015                   1621.644         0.000         0.000         0.000         0.000
  WSL2016                   1846.435         0.000         0.000         0.000         0.000
  WSL2017                   1847.966         0.000         0.000         0.000         0.000
  WSL2018                   2067.063         0.000         0.000         0.000         0.000
  WSL2019                   2068.273         0.000         0.000         0.000         0.000
  WSL2028                   1050.203         0.000         0.000         0.000         0.000
  WSL2029                   1852.994         0.000         0.000         0.000         0.000
  WSL2038                    219.646         0.000         0.000         0.000         0.000
  WSL2039                    225.611         0.000         0.000         0.000         0.000
  WSL2041                    223.615         0.000         0.000         0.000         0.000
  WSL2294                   1030.434         0.000         0.000         0.000         0.000
  WSL2295                   1031.349         0.000         0.000         0.000         0.000
  WSL2296                   1040.324         0.000         0.000         0.000         0.000
  WSL2297                   1044.476         0.000         0.000         0.000         0.000
  WSL2298                   1035.107         0.000         0.000         0.000         0.000
  WSL2301                   1045.025         0.000         0.000         0.000         0.000
  WSL2302                   1049.969         0.000         0.000         0.000         0.000
  WSL2441                   1029.301         0.000         0.000         0.000         0.000
  WSL2442                    406.720         0.000         0.000         0.000         0.000
  WSL2443                    406.777         0.000         0.000         0.000         0.000
  WSL2444                    403.870         0.000         0.000         0.000         0.000
  WSL2446                    402.231         0.000         0.000         0.000         0.000
  WSL2447                    398.698         0.000         0.000         0.000         0.000
  WSL2448                    394.230         0.000         0.000         0.000         0.000
  WSL2449                    392.049         0.000         0.000         0.000         0.000
  WSL2450                    389.584         0.000         0.000         0.000         0.000
  WSL2451                    389.051         0.000         0.000         0.000         0.000
  WSL2452                    387.371         0.000         0.000         0.000         0.000
  WSL2454                    383.432         0.000         0.000         0.000         0.000
  WSL2478                    381.024         0.000         0.000         0.000         0.000
  WSL2479                    211.829         0.000         0.000         0.000         0.000
  WSL2480                    303.895         0.000         0.000         0.000         0.000
  WSL2482                    301.802         0.000         0.000         0.000         0.000
  WSL2484                    229.203         0.000         0.000         0.000         0.000
  WSL2493                    409.178         0.000         0.000         0.000         0.000
  WSL2867                   2071.559         0.000         0.000         0.000         0.000
  WSL2868                   2079.553         0.000         0.000         0.000         0.000
  WSL348                     831.430         0.000         0.000         0.000         0.000
  WSL175                     840.024         0.000         0.000         0.000         0.000
  WSL1467                   2968.372         0.000         0.000         0.000         0.000
  WSL1473                   2971.987         0.000         0.000         0.000         0.000
  XRpipe                     854.339         0.000         0.000         0.000         0.000
  8                           95.516         0.000         0.000         0.000         0.000
  19                           0.000         0.000         0.000         0.000         0.000
  17                           0.000         0.000         0.000         0.000         0.000
  4                            0.000         0.000         0.000         0.000         0.000
  2                         3488.923         0.000         0.000         0.000         0.000
  XR-Pump-1                  229.530         0.000         0.000         0.000         0.000
  XR-Pump-3                  218.428         0.000         0.000         0.000         0.000
  XR-Pump-2                  228.824         0.000         0.000         0.000         0.000
  XR-Pump-4                  166.157         0.000         0.000         0.000         0.000
  CC-Pump-1                    0.000         0.000         0.000         0.000         0.000
  CC-Pump-2                    0.000         0.000         0.000         0.000         0.000
  JK-Pump-1                    0.000         0.000         0.000         0.000         0.000
  JK-Pump-2                    0.000         0.000         0.000         0.000         0.000
  

  Analysis begun on:  Mon Mar 18 14:31:18 2019
  Analysis ended on:  Mon Mar 18 14:31:19 2019
  Total elapsed time: 00:00:01