
  EPA STORM WATER MANAGEMENT MODEL - VERSION 5.1 (Build 5.1.013)
  --------------------------------------------------------------

  
  *********************************************************
  NOTE: The summary statistics displayed in this report are
  based on results found at every computational time step,  
  not just on results from each reporting time step.
  *********************************************************
  
  ****************
  Analysis Options
  ****************
  Flow Units ............... MLD
  Process Models:
    Rainfall/Runoff ........ YES
    RDII ................... NO
    Snowmelt ............... NO
    Groundwater ............ NO
    Flow Routing ........... YES
    Ponding Allowed ........ NO
    Water Quality .......... YES
  Infiltration Method ...... GREEN_AMPT
  Flow Routing Method ...... DYNWAVE
  Surcharge Method ......... EXTRAN
  Starting Date ............ 08/28/2015 08:00:00
  Ending Date .............. 08/29/2015 12:00:00
  Antecedent Dry Days ...... 4.0
  Report Time Step ......... 00:01:00
  Wet Time Step ............ 00:01:00
  Dry Time Step ............ 00:01:00
  Routing Time Step ........ 5.00 sec
  Variable Time Step ....... YES
  Maximum Trials ........... 8
  Number of Threads ........ 1
  Head Tolerance ........... 0.001500 m
  
  
  **************************        Volume         Depth
  Runoff Quantity Continuity     hectare-m            mm
  **************************     ---------       -------
  Total Precipitation ......        13.893        42.023
  Evaporation Loss .........         0.000         0.000
  Infiltration Loss ........         6.284        19.008
  Surface Runoff ...........         7.556        22.855
  Final Storage ............         0.054         0.162
  Continuity Error (%) .....        -0.004
  
  
  **************************           COD         NH3-N            TN            TP            SS
  Runoff Quality Continuity             kg            kg            kg            kg            kg
  **************************    ----------    ----------    ----------    ----------    ----------
  Initial Buildup ..........     15404.640         0.000         0.000         0.000         0.000
  Surface Buildup ..........      2220.483         0.000         0.000         0.000         0.000
  Wet Deposition ...........         0.000         0.000         0.000         0.000         0.000
  Sweeping Removal .........         0.000         0.000         0.000         0.000         0.000
  Infiltration Loss ........       852.373         0.000         0.000         0.000         0.000
  BMP Removal ..............         0.000         0.000         0.000         0.000         0.000
  Surface Runoff ...........     12545.340         0.000         0.000         0.000         0.000
  Remaining Buildup ........      4232.456         0.000         0.000         0.000         0.000
  Continuity Error (%) .....        -0.029         0.000         0.000         0.000         0.000
  
  
  **************************        Volume        Volume
  Flow Routing Continuity        hectare-m      10^6 ltr
  **************************     ---------     ---------
  Dry Weather Inflow .......         0.000         0.000
  Wet Weather Inflow .......         7.556        75.558
  Groundwater Inflow .......         0.000         0.000
  RDII Inflow ..............         0.000         0.000
  External Inflow ..........         3.694        36.938
  External Outflow .........         9.293        92.931
  Flooding Loss ............         1.903        19.034
  Evaporation Loss .........         0.000         0.000
  Exfiltration Loss ........         0.000         0.000
  Initial Stored Volume ....         0.000         0.000
  Final Stored Volume ......         0.057         0.565
  Continuity Error (%) .....        -0.030
  
  
  **************************           COD         NH3-N            TN            TP            SS
  Quality Routing Continuity            kg            kg            kg            kg            kg
  **************************    ----------    ----------    ----------    ----------    ----------
  Dry Weather Inflow .......         0.000         0.000         0.000         0.000         0.000
  Wet Weather Inflow .......     12544.787         0.000         0.000         0.000         0.000
  Groundwater Inflow .......         0.000         0.000         0.000         0.000         0.000
  RDII Inflow ..............         0.000         0.000         0.000         0.000         0.000
  External Inflow ..........      6168.656         0.000         0.000         0.000         0.000
  External Outflow .........     13652.494         0.000         0.000         0.000         0.000
  Flooding Loss ............      4982.238         0.000         0.000         0.000         0.000
  Exfiltration Loss ........         0.000         0.000         0.000         0.000         0.000
  Mass Reacted .............         0.000         0.000         0.000         0.000         0.000
  Initial Stored Mass ......         0.000         0.000         0.000         0.000         0.000
  Final Stored Mass ........        93.089         0.000         0.000         0.000         0.000
  Continuity Error (%) .....        -0.077         0.000         0.000         0.000         0.000
  
  
  ***************************
  Time-Step Critical Elements
  ***************************
  Link outletpipe (67.91%)
  Link WSL2448 (24.77%)
  Link WSL2867 (6.44%)
  
  
  ********************************
  Highest Flow Instability Indexes
  ********************************
  Link WSL1477 (40)
  Link WSL1516 (38)
  Link XRpipe (19)
  Link WSL1521 (18)
  Link WSL2448 (16)
  
  
  *************************
  Routing Time Step Summary
  *************************
  Minimum Time Step           :     0.50 sec
  Average Time Step           :     1.54 sec
  Maximum Time Step           :     5.00 sec
  Percent in Steady State     :     0.00
  Average Iterations per Step :     2.84
  Percent Not Converging      :     4.68
  
  
  ***************************
  Subcatchment Runoff Summary
  ***************************
  
  ------------------------------------------------------------------------------------------------------------------------------
                            Total      Total      Total      Total     Imperv       Perv      Total       Total     Peak  Runoff
                           Precip      Runon       Evap      Infil     Runoff     Runoff     Runoff      Runoff   Runoff   Coeff
  Subcatchment                 mm         mm         mm         mm         mm         mm         mm    10^6 ltr      MLD
  ------------------------------------------------------------------------------------------------------------------------------
  1                         42.02     117.91       0.00      26.53      39.98      93.43     133.41        1.61    13.93   0.834
  2                         42.02       0.00       0.00      17.63      10.50      13.88      24.39        0.82    18.05   0.580
  3                         42.02       0.00       0.00      18.66      10.50      12.86      23.36        1.19    25.15   0.556
  4                         42.02       0.00       0.00      17.06      10.50      14.46      24.96        0.66    14.91   0.594
  5                         42.02      60.67       0.00      23.46      25.67      53.56      79.23        1.35    16.98   0.772
  6                         42.02       0.00       0.00      18.58      10.50      12.94      23.44        1.16    24.51   0.558
  7                         42.02       0.00       0.00      17.92      23.63       0.15      23.78       38.04   421.88   0.566
  8                         42.02       0.00       0.00      18.20      10.50      13.32      23.82        1.01    21.70   0.567
  9                         42.02      23.47       0.00      22.26      16.37      26.86      43.23        1.63    24.48   0.660
  10                        42.02      79.94       0.00      26.43      30.49      65.04      95.53        1.77    14.94   0.783
  11                        42.02       0.00       0.00      16.35      10.50      15.16      25.67        0.51    11.71   0.611
  13                        42.02     749.71       0.00      30.98     197.94     562.84     760.78        1.22    13.39   0.961
  14                        42.02     587.33       0.00      29.60     157.34     442.43     599.77        1.20    14.03   0.953
  16                        42.02     181.68       0.00      27.25      55.92     140.53     196.45        1.32    11.81   0.878
  17                        42.02       0.00       0.00      17.84      10.50      13.68      24.18        0.89    19.33   0.575
  18                        42.02       0.00       0.00      18.26      10.50      13.26      23.76        1.03    22.10   0.565
  19                        42.02       0.00       0.00      16.94      10.50      14.58      25.08        0.63    14.31   0.597
  20                        42.02      22.66       0.00      21.09      16.17      27.43      43.60        1.22    19.16   0.674
  21                        42.02      80.31       0.00      25.04      30.58      66.72      97.29        1.48    15.17   0.795
  22                        42.02      46.33       0.00      21.98      22.08      44.28      66.36        1.17    16.36   0.751
  23                        42.02       0.00       0.00      14.02      10.50      17.50      28.00        0.20     5.01   0.666
  24                        42.02       0.00       0.00      16.59      10.50      14.93      25.43        0.56    12.72   0.605
  25                        42.02       0.00       0.00      15.08      10.50      16.44      26.94        0.31     7.48   0.641
  26                        42.02       0.00       0.00      16.38      10.50      15.14      25.64        0.51    11.81   0.610
  27                        42.02       0.00       0.00      16.32      10.50      15.20      25.70        0.50    11.57   0.612
  28                        42.02     111.83       0.00      29.74      38.46      85.65     124.11        3.26    24.87   0.807
  29                        42.02      42.98       0.00      23.53      21.25      40.22      61.46        1.48    16.67   0.723
  30                        42.02      92.60       0.00      23.26      33.65      77.71     111.37        1.04    13.20   0.827
  31                        42.02       0.00       0.00      17.76      10.50      13.76      24.26        0.86    18.82   0.577
  32                        42.02       0.00       0.00      18.67      10.50      12.85      23.35        1.20    25.22   0.556
  33                        42.02       0.00       0.00      14.49      10.50      17.03      27.54        0.24     5.99   0.655
  34                        42.02      51.70       0.00      23.20      23.43      47.10      70.52        1.46    19.14   0.752
  35                        42.02       0.00       0.00      17.37      10.50      14.14      24.65        0.75    16.57   0.586
  36                        42.02      58.41       0.00      28.65      25.10      46.67      71.77        4.23    42.30   0.715
  37                        42.02       0.00       0.00      18.34      10.50      13.17      23.67        1.07    22.75   0.563
  38                        42.02       0.00       0.00      17.29      10.50      14.23      24.73        0.72    16.12   0.588
  39                        42.02       0.00       0.00      17.66      10.50      13.86      24.36        0.83    18.22   0.580
  40                        42.02      12.76       0.00      20.55      13.69      20.53      34.22        1.34    23.09   0.625
  41                        42.02       0.00       0.00      16.31      10.50      15.21      25.72        0.50    11.52   0.612
  42                        42.02       0.00       0.00      16.69      10.50      14.83      25.33        0.58    13.15   0.603
  43                        42.02       0.00       0.00      12.67      10.51      18.84      29.35        0.11     2.90   0.698
  44                        42.02    1173.04       0.00      41.77     303.77     869.55    1173.31        4.34    37.58   0.966
  45                        42.02       0.00       0.00      14.86      10.50      16.66      27.17        0.28     6.88   0.646
  46                        42.02      44.30       0.00      22.72      21.58      42.02      63.60        1.36    17.61   0.737
  47                        42.02       0.00       0.00      15.02      10.50      16.50      27.00        0.30     7.32   0.642
  48                        42.02      18.97       0.00      18.70      15.25      27.04      42.29        0.67    11.76   0.693
  49                        42.02       0.00       0.00      16.55      10.50      14.97      25.47        0.55    12.53   0.606
  50                        42.02      30.94       0.00      20.59      18.24      34.13      52.37        0.93    14.17   0.718
  51                        42.02      25.59       0.00      20.58      16.90      30.14      47.04        1.01    15.82   0.696
  52                        42.02       0.00       0.00      16.55      10.50      14.97      25.47        0.55    12.53   0.606
  53                        42.02      13.03       0.00      18.18      13.76      23.11      36.87        0.65    12.19   0.670
  54                        42.02       0.00       0.00      14.38      10.50      17.14      27.64        0.23     5.77   0.658
  55                        42.02      27.95       0.00      17.78      17.49      34.70      52.19        0.43     7.56   0.746
  56                        42.02      47.61       0.00      22.96      22.41      44.27      66.67        1.43    17.95   0.744
  57                        42.02       0.00       0.00      18.61      10.50      12.91      23.41        1.17    24.75   0.557
  58                        42.02       0.00       0.00      14.88      10.50      16.64      27.14        0.28     6.94   0.646
  59                        42.02       0.00       0.00      14.41      10.50      17.11      27.61        0.23     5.82   0.657
  60                        42.02      61.90       0.00      19.06      25.98      58.89      84.87        0.44     6.82   0.817
  61                        42.02       0.00       0.00      21.79      10.50       9.73      20.22        3.64    67.68   0.481
  62                        42.02       0.00       0.00      21.92      10.49       9.60      20.09        3.82    70.57   0.478
  63                        42.02       0.00       0.00      14.72      10.50      16.79      27.30        0.26     6.55   0.650
  64                        42.02       0.00       0.00      15.20      10.50      16.32      26.82        0.32     7.80   0.638
  65                        42.02       0.00       0.00      16.04      10.50      15.48      25.98        0.45    10.49   0.618
  
  
  ****************************
  Subcatchment Washoff Summary
  ****************************
  
  ------------------------------------------------------------------------------------------
                                 COD         NH3-N            TN            TP            SS
  Subcatchment                    kg            kg            kg            kg            kg
  ------------------------------------------------------------------------------------------
  1                          206.055         0.000         0.000         0.000         0.000
  2                            0.000         0.000         0.000         0.000         0.000
  3                            0.000         0.000         0.000         0.000         0.000
  4                          118.868         0.000         0.000         0.000         0.000
  5                          236.954         0.000         0.000         0.000         0.000
  6                          214.222         0.000         0.000         0.000         0.000
  7                         6285.969         0.000         0.000         0.000         0.000
  8                          185.417         0.000         0.000         0.000         0.000
  9                          293.219         0.000         0.000         0.000         0.000
  10                         292.559         0.000         0.000         0.000         0.000
  11                          89.446         0.000         0.000         0.000         0.000
  13                         202.680         0.000         0.000         0.000         0.000
  14                         201.463         0.000         0.000         0.000         0.000
  16                         215.050         0.000         0.000         0.000         0.000
  17                         161.669         0.000         0.000         0.000         0.000
  18                         189.555         0.000         0.000         0.000         0.000
  19                         113.285         0.000         0.000         0.000         0.000
  20                         214.637         0.000         0.000         0.000         0.000
  21                         251.006         0.000         0.000         0.000         0.000
  22                         198.997         0.000         0.000         0.000         0.000
  23                          32.463         0.000         0.000         0.000         0.000
  24                          98.584         0.000         0.000         0.000         0.000
  25                          52.327         0.000         0.000         0.000         0.000
  26                          90.318         0.000         0.000         0.000         0.000
  27                          88.136         0.000         0.000         0.000         0.000
  28                         545.942         0.000         0.000         0.000         0.000
  29                         252.524         0.000         0.000         0.000         0.000
  30                         180.833         0.000         0.000         0.000         0.000
  31                         156.634         0.000         0.000         0.000         0.000
  32                         221.569         0.000         0.000         0.000         0.000
  33                          40.177         0.000         0.000         0.000         0.000
  34                         252.152         0.000         0.000         0.000         0.000
  35                         134.662         0.000         0.000         0.000         0.000
  36                         735.123         0.000         0.000         0.000         0.000
  37                         196.160         0.000         0.000         0.000         0.000
  38                         130.407         0.000         0.000         0.000         0.000
  39                         150.743         0.000         0.000         0.000         0.000
  40                         240.504         0.000         0.000         0.000         0.000
  41                          87.699         0.000         0.000         0.000         0.000
  42                         102.484         0.000         0.000         0.000         0.000
  43                          16.863         0.000         0.000         0.000         0.000
  44                         748.281         0.000         0.000         0.000         0.000
  45                          47.392         0.000         0.000         0.000         0.000
  46                         227.304         0.000         0.000         0.000         0.000
  47                          50.983         0.000         0.000         0.000         0.000
  48                         112.976         0.000         0.000         0.000         0.000
  49                          96.847         0.000         0.000         0.000         0.000
  50                         159.035         0.000         0.000         0.000         0.000
  51                         174.130         0.000         0.000         0.000         0.000
  52                          96.847         0.000         0.000         0.000         0.000
  53                         110.525         0.000         0.000         0.000         0.000
  54                          38.366         0.000         0.000         0.000         0.000
  55                          70.757         0.000         0.000         0.000         0.000
  56                         240.276         0.000         0.000         0.000         0.000
  57                         216.674         0.000         0.000         0.000         0.000
  58                          47.841         0.000         0.000         0.000         0.000
  59                          38.819         0.000         0.000         0.000         0.000
  60                          72.504         0.000         0.000         0.000         0.000
  61                         704.484         0.000         0.000         0.000         0.000
  62                         739.408         0.000         0.000         0.000         0.000
  63                          44.691         0.000         0.000         0.000         0.000
  64                          55.012         0.000         0.000         0.000         0.000
  65                          78.497         0.000         0.000         0.000         0.000
  ------------------------------------------------------------------------------------------
  System                   17649.004         0.000         0.000         0.000         0.000
  
  
  ******************
  Node Depth Summary
  ******************
  
  ---------------------------------------------------------------------------------
                                 Average  Maximum  Maximum  Time of Max    Reported
                                   Depth    Depth      HGL   Occurrence   Max Depth
  Node                 Type       Meters   Meters   Meters  days hr:min      Meters
  ---------------------------------------------------------------------------------
  WS01000070           JUNCTION     0.00     0.00     0.00     0  00:00        0.00
  WS01000323           JUNCTION     0.00     0.00     0.00     0  00:00        0.00
  WS01000533           JUNCTION     0.00     0.00     6.86     0  00:00        0.00
  WS01005172           JUNCTION     0.00     0.00     0.00     0  00:00        0.00
  WS01005181           JUNCTION     0.00     0.00     0.00     0  00:00        0.00
  WS01009841           JUNCTION     0.00     0.00     0.00     0  00:00        0.00
  WS02000078           JUNCTION     0.00     0.00     0.00     0  00:00        0.00
  WS02000112           JUNCTION     0.00     0.00     0.00     0  00:00        0.00
  WS02000136           JUNCTION     0.00     0.00     0.00     0  00:00        0.00
  WS02001211           JUNCTION     0.52     1.33     6.17     0  02:05        1.27
  WS02001212           JUNCTION     0.48     2.25     7.05     0  01:56        1.30
  WS02001213           JUNCTION     0.58     2.47     7.17     0  01:56        1.40
  WS02003059           JUNCTION     0.56     4.68     9.33     0  01:54        1.43
  WS02003060           JUNCTION     0.63     1.61     6.16     0  01:59        1.52
  WS02003066           JUNCTION     0.26     0.76     6.06     0  02:07        0.76
  WS02003067           JUNCTION     0.42     1.03     6.35     0  01:59        0.98
  WS02003071           JUNCTION     0.68     1.76     6.16     0  01:59        1.50
  WS02003072           JUNCTION     0.59     1.75     6.12     0  01:59        1.37
  WS02003073           JUNCTION     0.68     1.50     5.74     0  03:14        1.41
  WS02003076           JUNCTION     0.62     1.29     5.52     0  02:08        1.29
  WS02003077           JUNCTION     0.19     0.73     5.74     0  02:08        0.73
  WS02003078           JUNCTION     0.05     0.19     7.09     0  02:04        0.18
  WS02003079           JUNCTION     0.16     0.54     7.45     0  02:00        0.54
  WS02003080           JUNCTION     0.31     0.95     5.98     0  01:52        0.90
  WS02003081           JUNCTION     0.41     3.84     8.88     0  01:48        1.11
  WS02003082           JUNCTION     0.44     2.90     7.98     0  01:48        1.36
  WS02003083           JUNCTION     0.52     2.60     7.69     0  01:48        1.46
  WS02003084           JUNCTION     0.56     2.81     7.91     0  01:48        1.57
  WS02003085           JUNCTION     0.52     2.87     8.04     0  01:48        1.60
  WS02003086           JUNCTION     0.57     3.34     8.54     0  01:48        1.74
  WS02003087           JUNCTION     0.63     3.77     8.99     0  01:48        1.89
  WS02003088           JUNCTION     0.62     4.03     9.32     0  01:48        1.99
  WS02003089           JUNCTION     0.59     4.29     9.75     0  01:48        2.01
  WS02003090           JUNCTION     0.64     4.43     9.90     0  01:48        2.11
  WS02003091           JUNCTION     0.51     4.21    10.01     0  01:48        1.89
  WS02003092           JUNCTION     0.01     0.06     7.70     0  01:58        0.06
  WS02003093           JUNCTION     0.07     0.36     7.70     0  01:59        0.36
  WS02003094           JUNCTION     0.15     0.48     7.70     0  01:58        0.48
  WS02003098           JUNCTION     0.11     0.48     7.65     0  01:58        0.48
  WS02003099           JUNCTION     0.19     0.61     7.65     0  01:58        0.61
  WS02003102           JUNCTION     0.17     0.59     7.62     0  01:59        0.59
  WS02003103           JUNCTION     0.18     0.61     7.58     0  01:59        0.61
  WS02003104           JUNCTION     0.18     0.59     7.55     0  01:59        0.59
  WS02003106           JUNCTION     0.18     0.57     7.50     0  02:00        0.57
  WS02003110           JUNCTION     0.59     2.54     9.79     0  01:46        2.36
  WS02003111           JUNCTION     0.62     2.39     9.48     0  01:47        2.39
  WS02003115           JUNCTION     0.68     2.72     9.62     0  01:48        2.55
  WS02003116           JUNCTION     0.73     2.87     9.58     0  01:48        2.66
  WS02003118           JUNCTION     0.68     2.52     9.14     0  01:53        2.51
  WS02003122           JUNCTION     0.76     2.51     8.88     0  01:53        2.50
  WS02003123           JUNCTION     0.68     2.40     8.84     0  01:54        2.39
  WS02003126           JUNCTION     0.61     2.17     8.69     0  01:54        2.17
  WS02003187           JUNCTION     0.77     2.53     8.86     0  01:53        2.53
  WS02003188           JUNCTION     0.82     2.59     8.85     0  01:53        2.58
  WS02003190           JUNCTION     0.80     2.56     8.81     0  01:50        2.56
  WS02003193           JUNCTION     0.77     2.55     8.79     0  01:50        2.53
  WS02003195           JUNCTION     0.74     2.45     8.67     0  01:50        2.45
  WS02003196           JUNCTION     0.74     2.37     8.55     0  01:54        2.36
  WS02003198           JUNCTION     0.71     2.52     8.69     0  01:48        2.28
  WS02003200           JUNCTION     0.55     3.14     9.30     0  01:48        1.91
  WS02003201           JUNCTION     0.54     3.22     9.36     0  01:48        1.88
  WS02003202           JUNCTION     0.54     3.57     9.63     0  01:48        1.86
  WS02003203           JUNCTION     0.47     3.82     9.82     0  01:48        1.75
  WS02003215           JUNCTION     0.67     2.80     9.66     0  01:48        2.56
  WS02004050           JUNCTION     0.45     1.19     5.41     0  02:08        1.19
  WS02004053           JUNCTION     0.00     0.00     0.00     0  00:00        0.00
  WS02004136           JUNCTION     0.17     0.18     6.91     0  12:58        0.18
  WS02004139           JUNCTION     0.43     1.24     6.20     0  02:06        1.19
  WS02004401           JUNCTION     0.51     1.54     7.54     0  01:52        1.54
  WS02004402           JUNCTION     0.52     1.55     7.51     0  01:53        1.55
  WS02004403           JUNCTION     0.50     1.54     7.47     0  01:51        1.52
  WS02004404           JUNCTION     0.58     1.60     7.45     0  01:51        1.58
  WS02004405           JUNCTION     0.58     1.60     7.44     0  01:51        1.56
  WS02004406           JUNCTION     0.55     1.53     7.36     0  01:51        1.51
  WS02004407           JUNCTION     0.52     1.45     7.25     0  01:51        1.38
  WS02004409           JUNCTION     0.50     1.39     7.16     0  01:51        1.31
  WS02004410           JUNCTION     0.47     1.30     7.02     0  01:51        1.20
  WS02004411           JUNCTION     0.44     1.09     6.77     0  01:53        1.09
  WS02004412           JUNCTION     0.38     0.96     6.60     0  01:53        0.95
  WS02004413           JUNCTION     0.39     0.97     6.44     0  01:59        0.95
  WS02004997           JUNCTION     4.59     6.55     8.16     0  02:07        6.54
  WS02005122           JUNCTION     0.33     2.30    11.82     0  01:49        2.30
  WS02005123           JUNCTION     0.30     2.21    11.67     0  01:49        2.21
  WS02005124           JUNCTION     0.29     2.25    11.52     0  01:49        2.05
  WS02005126           JUNCTION     0.34     2.12    11.22     0  01:49        2.12
  WS02005127           JUNCTION     0.34     1.97    11.00     0  01:49        1.95
  WS02005129           JUNCTION     0.34     1.86    10.79     0  01:49        1.82
  WS02005131           JUNCTION     0.38     1.75    10.51     0  01:49        1.75
  WS02005132           JUNCTION     0.42     1.83    10.47     0  01:48        1.83
  WS02005133           JUNCTION     0.42     1.97    10.58     0  01:48        1.91
  WS02005135           JUNCTION     0.42     2.27    10.83     0  01:48        2.02
  WS02005137           JUNCTION     0.47     2.58    11.00     0  01:48        2.18
  WS02005138           JUNCTION     0.48     2.92    11.27     0  01:48        2.25
  WS02005140           JUNCTION     0.46     3.00    11.32     0  01:48        2.27
  WS02005142           JUNCTION     0.51     3.12    11.28     0  01:48        2.41
  WS02005144           JUNCTION     0.51     3.19    11.24     0  01:48        2.41
  WS02005145           JUNCTION     0.55     3.21    11.11     0  01:48        2.43
  WS02005147           JUNCTION     0.51     3.00    10.87     0  01:48        2.34
  WS02005152           JUNCTION     0.54     2.85    10.57     0  01:47        2.35
  WS02005154           JUNCTION     0.52     2.66    10.30     0  01:47        2.28
  WS02005155           JUNCTION     0.61     2.66     9.97     0  01:46        2.44
  WS02005162           JUNCTION     0.31     3.43    11.43     0  01:48        2.74
  WS02005163           JUNCTION     0.31     3.50    11.54     0  01:50        2.63
  WS02005164           JUNCTION     0.30     3.50    11.58     0  01:50        2.73
  WS02005165           JUNCTION     0.27     3.52    11.70     0  01:49        2.76
  WS02005166           JUNCTION     0.25     3.57    11.84     0  01:49        2.79
  WS02005167           JUNCTION     0.27     3.56    11.86     0  01:50        2.88
  WS02005170           JUNCTION     0.23     3.60    12.00     0  01:50        2.88
  WS02005171           JUNCTION     0.22     3.60    12.07     0  01:50        2.91
  WS02005175           JUNCTION     0.21     3.40    11.97     0  01:50        2.95
  WS02005176           JUNCTION     0.20     3.33    11.95     0  01:50        2.99
  WS02005180           JUNCTION     0.21     3.33    11.98     0  01:51        3.06
  WS02005181           JUNCTION     0.19     3.33    12.03     0  01:51        3.10
  WS02005183           JUNCTION     0.15     3.24    12.10     0  01:51        3.02
  WS02005184           JUNCTION     0.15     3.19    12.10     0  01:51        3.03
  WS02005185           JUNCTION     0.13     3.06    12.08     0  01:51        2.98
  WS02005186           JUNCTION     0.12     2.96    12.07     0  01:51        2.96
  WS02005188           JUNCTION     0.33     3.30    11.24     0  01:51        2.90
  WS02005191           JUNCTION     0.36     3.24    11.14     0  01:51        2.93
  WS02005192           JUNCTION     0.37     3.00    10.87     0  01:51        2.83
  WS02005193           JUNCTION     0.35     3.22    11.04     0  03:12        2.64
  WS02005196           JUNCTION     0.36     2.99    10.84     0  01:50        2.65
  WS02006109           JUNCTION     0.57     2.51     9.13     0  01:51        1.67
  WS02006110           JUNCTION     0.52     2.64     9.24     0  01:51        1.57
  WS02006111           JUNCTION     0.32     2.68     9.26     0  01:51        1.28
  WS02006112           JUNCTION     0.53     2.68     8.80     0  01:51        1.59
  WS02006113           JUNCTION     0.45     2.73     9.32     0  01:51        1.47
  WS02006115           JUNCTION     0.49     2.41     8.51     0  01:51        1.55
  WS02006116           JUNCTION     0.51     2.37     8.41     0  01:51        1.56
  WS02006183           JUNCTION     0.00     0.00     0.00     0  00:00        0.00
  WS02006228           JUNCTION     0.59     2.27     8.92     0  01:51        1.74
  WS02006229           JUNCTION     0.57     2.00     8.69     0  01:51        1.73
  WS02006230           JUNCTION     0.56     1.86     8.61     0  01:52        1.78
  WS02006231           JUNCTION     0.48     1.79     8.69     0  01:52        1.72
  WS02006232           JUNCTION     0.46     1.94     8.97     0  03:10        1.68
  WS02006234           JUNCTION     0.44     1.96     9.12     0  02:51        1.57
  WS02006235           JUNCTION     0.49     1.99     9.16     0  01:47        1.59
  WS02006238           JUNCTION     0.49     2.13     9.31     0  01:47        1.58
  WS02006239           JUNCTION     0.49     2.03     9.24     0  01:47        1.53
  WS02006242           JUNCTION     0.47     1.55     8.85     0  01:47        1.39
  WS02006240           JUNCTION     0.44     2.10     9.39     0  03:10        1.42
  WS02006243           JUNCTION     0.40     1.48     8.90     0  03:10        1.24
  WS02006245           JUNCTION     0.38     1.51     9.00     0  03:00        1.15
  WS02006247           JUNCTION     0.40     1.40     8.91     0  03:10        1.13
  WS02006248           JUNCTION     0.34     1.08     8.67     0  01:51        1.03
  WS02006249           JUNCTION     0.37     1.09     8.69     0  01:47        1.09
  WS02006251           JUNCTION     0.39     2.21     9.88     0  01:50        2.21
  WS02006253           JUNCTION     0.33     3.15    10.95     0  01:50        3.15
  WS02618401           JUNCTION     0.00     0.00     0.00     0  00:00        0.00
  WS8802               JUNCTION     0.00     0.00     4.38     0  00:00        0.00
  WSA1649              JUNCTION     0.00     0.00     0.00     0  00:00        0.00
  WSF200               JUNCTION     0.26     0.99     6.09     0  02:07        0.98
  XR-Inflow            JUNCTION     4.48     6.55     8.36     0  01:44        6.55
  WS02004114           JUNCTION     4.53     6.41     8.01     0  02:00        6.40
  outfall-24           OUTFALL      0.09     0.18     5.68     0  01:52        0.18
  outfall-2            OUTFALL      0.00     0.00     7.00     0  00:00        0.00
  outfall-5            OUTFALL      0.06     0.40     8.07     0  01:51        0.40
  outfall-8            OUTFALL      0.03     0.17     8.17     0  01:54        0.17
  outfall-14           OUTFALL      0.00     0.00     7.66     0  00:00        0.00
  outfall-16           OUTFALL      0.00     0.00     8.39     0  00:00        0.00
  outfall-17           OUTFALL      0.00     0.00     8.15     0  00:00        0.00
  outfall-27           OUTFALL      0.01     0.26     8.16     0  01:56        0.26
  outfall-28           OUTFALL      0.02     0.40     7.70     0  01:53        0.40
  67                   OUTFALL      0.03     0.26    10.46     0  01:52        0.26
  12                   OUTFALL      0.44     1.00     1.00     0  01:59        1.00
  XR-storage           STORAGE      5.60     7.41     7.91     0  01:52        7.41
  CC-storage           STORAGE      2.37     5.39     8.57     0  01:56        5.39
  JK-storage           STORAGE      2.35     4.80     7.80     0  01:54        4.80
  
  
  *******************
  Node Inflow Summary
  *******************
  
  -------------------------------------------------------------------------------------------------
                                  Maximum  Maximum                  Lateral       Total        Flow
                                  Lateral    Total  Time of Max      Inflow      Inflow     Balance
                                   Inflow   Inflow   Occurrence      Volume      Volume       Error
  Node                 Type           MLD      MLD  days hr:min    10^6 ltr    10^6 ltr     Percent
  -------------------------------------------------------------------------------------------------
  WS01000070           JUNCTION      0.00     0.00     0  00:00           0           0       0.000 ltr
  WS01000323           JUNCTION      0.00     0.00     0  00:00           0           0       0.000 ltr
  WS01000533           JUNCTION      0.00     0.00     0  00:00           0           0       0.000 ltr
  WS01005172           JUNCTION      0.00     0.00     0  00:00           0           0       0.000 ltr
  WS01005181           JUNCTION      0.00     0.00     0  00:00           0           0       0.000 ltr
  WS01009841           JUNCTION      0.00     0.00     0  00:00           0           0       0.000 ltr
  WS02000078           JUNCTION      0.00     0.00     0  00:00           0           0       0.000 ltr
  WS02000112           JUNCTION      0.00     0.00     0  00:00           0           0       0.000 ltr
  WS02000136           JUNCTION      0.00     0.00     0  00:00           0           0       0.000 ltr
  WS02001211           JUNCTION      0.25    51.00     0  02:02       0.275        28.7       0.058
  WS02001212           JUNCTION      0.21    50.36     0  03:28       0.241        28.9       0.033
  WS02001213           JUNCTION      0.31    71.55     0  03:59        0.32        29.2       0.035
  WS02003059           JUNCTION      0.23    47.50     0  03:35       0.258        29.5       0.050
  WS02003060           JUNCTION      0.16   220.35     0  02:01       0.152        57.8       0.029
  WS02003066           JUNCTION      0.08   231.37     0  01:53      0.0806        28.1       0.031
  WS02003067           JUNCTION      0.26   190.66     0  02:00       0.231          28       0.009
  WS02003071           JUNCTION      0.35   220.74     0  02:01       0.329        58.1       0.034
  WS02003072           JUNCTION      0.24   221.00     0  02:01       0.242        58.3       0.018
  WS02003073           JUNCTION      0.07   315.30     0  02:00      0.0542        70.3       0.021
  WS02003076           JUNCTION      0.72   315.40     0  02:00       0.836        71.1       0.011
  WS02003077           JUNCTION      0.04    98.88     0  01:55      0.0328        11.9       0.003
  WS02003078           JUNCTION      0.03    58.45     0  02:00      0.0233        2.99       0.030
  WS02003079           JUNCTION      0.04    43.22     0  01:59      0.0312        2.97       0.020
  WS02003080           JUNCTION      0.08    48.53     0  01:50      0.0625         8.9       0.021
  WS02003081           JUNCTION      0.03    48.45     0  01:50      0.0226        8.84       0.027
  WS02003082           JUNCTION      0.05    48.43     0  01:50      0.0384        8.82       0.023
  WS02003083           JUNCTION      0.02    48.38     0  01:50      0.0151        8.78       0.026
  WS02003084           JUNCTION      0.06    48.36     0  01:50      0.0491        8.77       0.017
  WS02003085           JUNCTION      0.02    48.30     0  01:50      0.0171        8.72       0.009
  WS02003086           JUNCTION      0.04    48.28     0  01:50      0.0333        8.71       0.017
  WS02003087           JUNCTION      0.06    48.24     0  01:50      0.0457        8.67       0.020
  WS02003088           JUNCTION      0.07    48.18     0  01:50      0.0581        8.63       0.014
  WS02003089           JUNCTION      0.08    48.11     0  01:50      0.0625        8.57       0.008
  WS02003090           JUNCTION      0.04    48.04     0  01:50      0.0359        8.51       0.010
  WS02003091           JUNCTION      0.01    48.00     0  01:50      0.0096        8.47       0.002
  WS02003092           JUNCTION      0.07     0.39     0  01:54      0.0548      0.0552       0.029
  WS02003093           JUNCTION      0.02     1.85     0  01:49       0.017      0.0803       0.144
  WS02003094           JUNCTION     24.54    24.54     0  01:55        1.69        1.77       0.029
  WS02003098           JUNCTION      0.02    23.66     0  01:59      0.0164        1.77       0.020
  WS02003099           JUNCTION      0.07    23.92     0  02:00      0.0605        1.83       0.051
  WS02003102           JUNCTION     21.72    43.18     0  01:57        1.03        2.87       0.016
  WS02003103           JUNCTION      0.02    43.10     0  01:57      0.0133        2.88       0.014
  WS02003104           JUNCTION      0.02    43.08     0  01:58      0.0168         2.9       0.011
  WS02003106           JUNCTION      0.05    43.07     0  01:59      0.0404        2.94       0.018
  WS02003110           JUNCTION      0.06    47.19     0  01:53      0.0538        5.33       0.003
  WS02003111           JUNCTION      0.02    47.21     0  01:53      0.0198        5.35       0.004
  WS02003115           JUNCTION      5.09    35.56     0  03:01        0.26        5.18       0.004
  WS02003116           JUNCTION      0.08    35.67     0  03:01      0.0691         5.3       0.015
  WS02003118           JUNCTION     12.78    44.89     0  01:49       0.612        5.91       0.013
  WS02003122           JUNCTION      0.07    44.96     0  01:49      0.0595        6.08       0.022
  WS02003123           JUNCTION      0.06    29.12     0  01:54      0.0552        1.64       0.017
  WS02003126           JUNCTION      0.03    29.14     0  01:54       0.033        1.57       0.002
  WS02003187           JUNCTION      0.06    36.18     0  01:48      0.0538        4.58       0.025
  WS02003188           JUNCTION     11.83    40.68     0  01:48        1.34        5.92       0.040
  WS02003190           JUNCTION      0.06    40.74     0  01:48      0.0566        5.98       0.036
  WS02003193           JUNCTION     11.73    49.59     0  01:48       0.528         6.5       0.033
  WS02003195           JUNCTION      0.03    49.62     0  01:48       0.033        6.54       0.035
  WS02003196           JUNCTION      0.02    40.08     0  01:48      0.0204        6.55       0.038
  WS02003198           JUNCTION     14.97    49.60     0  01:48        1.79        8.34       0.038
  WS02003200           JUNCTION      0.07    49.66     0  01:48      0.0631         8.4       0.013
  WS02003201           JUNCTION      0.01    47.92     0  01:50      0.0103        8.41       0.004
  WS02003202           JUNCTION      0.02    47.94     0  01:50      0.0173        8.43       0.020
  WS02003203           JUNCTION      0.05    47.98     0  01:50      0.0384        8.46      -0.007
  WS02003215           JUNCTION      0.06    35.62     0  03:01       0.056        5.23       0.003
  WS02004050           JUNCTION      0.72   330.08     0  02:00       0.831        71.9       0.054
  WS02004053           JUNCTION      0.00     0.00     0  00:00           0           0       0.000 ltr
  WS02004136           JUNCTION      0.44    32.92     0  12:00       0.455          28       0.014
  WS02004139           JUNCTION      0.39    33.96     0  11:01       0.408        28.4       0.035
  WS02004401           JUNCTION      0.05   102.89     0  01:51      0.0626        19.7       0.015
  WS02004402           JUNCTION      0.22   100.94     0  02:01       0.198        19.9       0.011
  WS02004403           JUNCTION      0.23   101.15     0  02:01       0.206        20.1       0.009
  WS02004404           JUNCTION      0.24   101.35     0  02:01       0.215        20.3       0.014
  WS02004405           JUNCTION     14.98   116.19     0  01:52       0.741          21       0.009
  WS02004406           JUNCTION     25.01   139.53     0  01:53         3.4        24.4       0.018
  WS02004407           JUNCTION      0.11   139.63     0  01:53       0.108        24.5       0.020
  WS02004409           JUNCTION     17.21   156.24     0  01:53        1.55          26       0.014
  WS02004410           JUNCTION      0.15   156.38     0  01:53       0.138        26.2       0.013
  WS02004411           JUNCTION      0.25   156.57     0  01:53       0.222        26.4       0.013
  WS02004412           JUNCTION     24.60   181.88     0  01:53        1.25        27.6       0.015
  WS02004413           JUNCTION      0.11   184.01     0  01:54       0.108        27.8       0.001
  WS02004997           JUNCTION      0.42   114.43     0  02:58        0.47        40.3       0.097
  WS02005122           JUNCTION     15.88    15.88     0  01:54        1.07        1.07       0.003
  WS02005123           JUNCTION      0.06    13.74     0  02:03      0.0621        1.11       0.009
  WS02005124           JUNCTION      0.04    24.45     0  01:49      0.0419        1.15      -0.017
  WS02005126           JUNCTION     14.23    27.39     0  01:54       0.989        2.14       0.003
  WS02005127           JUNCTION      0.05    27.45     0  01:54       0.055        2.19       0.002
  WS02005129           JUNCTION     16.16    43.48     0  01:53       0.766        2.96       0.002
  WS02005131           JUNCTION      0.04    45.81     0  01:49      0.0458        3.02       0.043
  WS02005132           JUNCTION      0.05    42.30     0  01:48      0.0528        2.32       0.000
  WS02005133           JUNCTION      0.06    35.64     0  01:48      0.0635        2.12       0.008
  WS02005135           JUNCTION     22.81    36.86     0  01:48        1.13        3.14       0.006
  WS02005137           JUNCTION      0.04    33.54     0  01:48      0.0427        3.07       0.008
  WS02005138           JUNCTION      0.06    30.20     0  01:48      0.0638        3.14       0.017
  WS02005140           JUNCTION      0.06    27.97     0  01:48      0.0634         3.2       0.008
  WS02005142           JUNCTION     25.27    41.27     0  01:48        1.25        4.45       0.011
  WS02005144           JUNCTION      0.06    37.83     0  01:48      0.0594        4.51       0.007
  WS02005145           JUNCTION      0.04    35.43     0  01:48      0.0423        4.55       0.018
  WS02005147           JUNCTION      0.05    35.37     0  01:53      0.0495         4.6       0.007
  WS02005152           JUNCTION      0.06    35.44     0  01:53      0.0624        4.66       0.012
  WS02005154           JUNCTION     11.62    47.06     0  01:53        0.56        5.22       0.004
  WS02005155           JUNCTION      0.06    47.12     0  01:53      0.0635        5.28       0.007
  WS02005162           JUNCTION      0.08    37.85     0  01:52      0.0726        2.68       0.029
  WS02005163           JUNCTION      0.13    37.72     0  01:52       0.113        2.61       0.032
  WS02005164           JUNCTION      6.99    37.54     0  01:52       0.326         2.5       0.030
  WS02005165           JUNCTION      0.11    30.55     0  01:52      0.0953        2.18       0.018
  WS02005166           JUNCTION      0.11    30.40     0  01:52       0.095        2.08       0.023
  WS02005167           JUNCTION      6.61    30.25     0  01:52       0.319        1.99       0.026
  WS02005170           JUNCTION      0.09    32.39     0  01:50      0.0746        1.67       0.015
  WS02005171           JUNCTION      0.02    30.89     0  01:50      0.0206         1.6       0.019
  WS02005175           JUNCTION     10.51    29.88     0  01:50       0.468        1.58       0.016
  WS02005176           JUNCTION      0.08    26.72     0  01:50      0.0705        1.12       0.024
  WS02005180           JUNCTION      0.12    28.47     0  01:51      0.0978        1.05       0.032
  WS02005181           JUNCTION      0.14    26.33     0  01:51       0.115       0.947       0.013
  WS02005183           JUNCTION      0.03    23.43     0  01:51      0.0265        0.83       0.004
  WS02005184           JUNCTION      0.09    26.27     0  01:51      0.0747       0.801      -0.008
  WS02005185           JUNCTION      0.07    24.17     0  01:51      0.0638       0.724      -0.008
  WS02005186           JUNCTION     12.21    18.50     0  01:51       0.663       0.663      -0.010
  WS02005188           JUNCTION      0.03    37.92     0  01:52      0.0301        2.73       0.026
  WS02005191           JUNCTION      0.06    38.03     0  01:52      0.0493         2.8       0.045
  WS02005192           JUNCTION     24.86    62.78     0  01:52        1.27         4.1       0.021
  WS02005193           JUNCTION      0.09    63.06     0  01:52      0.0926         4.4       0.030
  WS02005196           JUNCTION      0.12    62.94     0  01:52       0.117        4.25       0.036
  WS02006109           JUNCTION      0.08    86.28     0  03:08      0.0874        17.5       0.018
  WS02006110           JUNCTION      0.08    86.35     0  03:08      0.0857        17.6       0.020
  WS02006111           JUNCTION      0.24   104.53     0  01:51       0.215        19.1       0.006
  WS02006112           JUNCTION      0.18   100.54     0  01:51       0.164        19.3       0.003
  WS02006113           JUNCTION     25.32   104.13     0  01:51        1.35        18.9       0.021
  WS02006115           JUNCTION      0.08   101.38     0  01:51      0.0873        19.4       0.017
  WS02006116           JUNCTION      0.24   102.42     0  01:51       0.212        19.6       0.016
  WS02006183           JUNCTION      0.00     0.00     0  00:00           0           0       0.000 ltr
  WS02006228           JUNCTION     37.75    86.20     0  03:08        4.51        17.4       0.014
  WS02006229           JUNCTION      0.13    67.61     0  01:48       0.124        12.9       0.013
  WS02006230           JUNCTION      0.07    71.15     0  01:47      0.0762        12.8       0.016
  WS02006231           JUNCTION      0.13    70.99     0  01:47       0.125        12.7       0.001
  WS02006232           JUNCTION     18.14    70.70     0  01:47       0.909        12.6       0.010
  WS02006234           JUNCTION      0.14    59.45     0  01:47       0.131        11.7       0.023
  WS02006235           JUNCTION      0.15    60.67     0  01:47       0.135        11.5      -0.018
  WS02006238           JUNCTION      0.15    63.02     0  01:47       0.142        11.5       0.021
  WS02006239           JUNCTION      0.11    38.83     0  03:53       0.108        7.35       0.038
  WS02006242           JUNCTION      0.08    35.39     0  01:45      0.0833        7.11       0.050
  WS02006240           JUNCTION      0.06    36.37     0  03:53       0.067         7.2       0.023
  WS02006243           JUNCTION      0.18    37.00     0  01:46       0.161        7.02       0.007
  WS02006245           JUNCTION      0.07    38.59     0  01:46      0.0747        6.86       0.009
  WS02006247           JUNCTION     14.07    40.00     0  01:46        1.77        7.27       0.028
  WS02006248           JUNCTION      0.12    80.93     0  01:51       0.118        9.73      -0.006
  WS02006249           JUNCTION      0.19   105.56     0  01:52        0.17        9.68       0.043
  WS02006251           JUNCTION      7.62   105.37     0  01:52       0.499        9.51      -0.002
  WS02006253           JUNCTION      0.11    97.76     0  01:52       0.107        9.11      -0.024
  WS02618401           JUNCTION      0.00     0.00     0  00:00           0           0       0.000 ltr
  WS8802               JUNCTION      0.00     0.00     0  00:00           0           0       0.000 ltr
  WSA1649              JUNCTION      0.00     0.00     0  00:00           0           0       0.000 ltr
  WSF200               JUNCTION      0.14   211.31     0  01:59       0.133        28.2      -0.017
  XR-Inflow            JUNCTION    440.97   440.97     0  02:10        57.4        57.4       0.014
  WS02004114           JUNCTION      0.58   114.99     0  01:53       0.593          41       0.015
  outfall-24           OUTFALL       0.00    82.50     0  01:52           0        13.3       0.000
  outfall-2            OUTFALL       0.00     0.00     0  00:00           0           0       0.000 ltr
  outfall-5            OUTFALL       0.00    80.14     0  01:51           0        4.31       0.000
  outfall-8            OUTFALL       0.00    29.14     0  01:54           0        1.53       0.000
  outfall-14           OUTFALL       0.00     0.00     0  00:00           0           0       0.000 ltr
  outfall-16           OUTFALL       0.00     0.00     0  00:00           0           0       0.000 ltr
  outfall-17           OUTFALL       0.00     0.00     0  00:00           0           0       0.000 ltr
  outfall-27           OUTFALL       0.00    35.04     0  01:56           0       0.484       0.000
  outfall-28           OUTFALL       0.00    33.41     0  01:53           0       0.565       0.000
  67                   OUTFALL       0.00    24.02     0  01:52           0       0.833       0.000
  12                   OUTFALL       0.00   296.85     0  02:00           0        71.9       0.000
  XR-storage           STORAGE       0.00   115.00     0  01:52           0          41       0.021
  CC-storage           STORAGE      69.60    69.60     0  01:56        5.23        5.23       0.000
  JK-storage           STORAGE      71.75    71.75     0  01:56        4.79        4.79      -0.000
  
  
  **********************
  Node Surcharge Summary
  **********************
  
  Surcharging occurs when water rises above the top of the highest conduit.
  ---------------------------------------------------------------------
                                               Max. Height   Min. Depth
                                   Hours       Above Crown    Below Rim
  Node                 Type      Surcharged         Meters       Meters
  ---------------------------------------------------------------------
  WS01000070           JUNCTION       28.00          0.000        0.000
  WS01000323           JUNCTION       28.00          0.000        0.000
  WS01000533           JUNCTION       28.00          0.000        2.147
  WS01005172           JUNCTION       28.00          0.000        0.000
  WS01005181           JUNCTION       28.00          0.000        0.000
  WS01009841           JUNCTION       28.00          0.000        0.000
  WS02000078           JUNCTION       28.00          0.000        0.000
  WS02000112           JUNCTION       28.00          0.000        0.000
  WS02000136           JUNCTION       28.00          0.000        0.000
  WS02001212           JUNCTION        0.47          1.248        2.016
  WS02001213           JUNCTION        0.56          1.471        1.891
  WS02003059           JUNCTION        0.70          3.679        0.038
  WS02003060           JUNCTION        0.47          0.411        2.821
  WS02003071           JUNCTION        0.46          0.557        3.000
  WS02003072           JUNCTION        0.33          0.550        3.221
  WS02003073           JUNCTION        0.41          0.296        3.779
  WS02003080           JUNCTION        0.98          0.349        3.787
  WS02003081           JUNCTION        2.39          3.243        0.771
  WS02003082           JUNCTION        2.56          2.303        1.729
  WS02003083           JUNCTION        2.69          2.002        1.471
  WS02003084           JUNCTION        2.84          2.210        2.369
  WS02003085           JUNCTION        2.71          2.271        1.471
  WS02003086           JUNCTION        2.77          2.743        1.030
  WS02003087           JUNCTION        2.85          3.167        0.538
  WS02003088           JUNCTION        2.82          3.429        0.111
  WS02003089           JUNCTION        2.66          3.691        0.052
  WS02003090           JUNCTION        2.69          3.833        0.000
  WS02003091           JUNCTION        2.55          3.607        0.220
  WS02003110           JUNCTION        2.39          1.944        0.000
  WS02003111           JUNCTION        2.42          1.788        0.000
  WS02003115           JUNCTION        2.47          2.124        0.000
  WS02003116           JUNCTION        2.53          2.271        0.160
  WS02003118           JUNCTION        2.54          1.924        0.640
  WS02003122           JUNCTION        2.71          1.907        0.774
  WS02003123           JUNCTION        2.75          1.898        0.487
  WS02003187           JUNCTION        2.75          1.934        0.576
  WS02003188           JUNCTION        2.86          1.988        0.380
  WS02003190           JUNCTION        2.80          1.964        0.252
  WS02003193           JUNCTION        2.73          1.947        0.302
  WS02003196           JUNCTION        2.67          1.775        0.935
  WS02003198           JUNCTION        2.60          1.924        1.360
  WS02003200           JUNCTION        2.43          2.542        0.431
  WS02003201           JUNCTION        2.42          2.617        0.000
  WS02003202           JUNCTION        2.44          2.966        0.607
  WS02003203           JUNCTION        2.41          3.224        0.000
  WS02003215           JUNCTION        2.48          2.202        0.000
  WS02004053           JUNCTION       28.00          0.000        0.000
  WS02004139           JUNCTION        0.01          0.039        2.591
  WS02004402           JUNCTION        1.36          0.552        1.188
  WS02004403           JUNCTION        1.36          0.541        1.489
  WS02004404           JUNCTION        1.55          0.605        2.175
  WS02004405           JUNCTION        1.52          0.598        2.202
  WS02004406           JUNCTION        1.36          0.528        1.922
  WS02004407           JUNCTION        1.18          0.447        1.896
  WS02004409           JUNCTION        0.95          0.394        1.966
  WS02004410           JUNCTION        0.48          0.296        2.244
  WS02004411           JUNCTION        0.14          0.087        2.443
  WS02004997           JUNCTION        7.51          5.645        0.355
  WS02005122           JUNCTION        1.60          1.998        0.000
  WS02005123           JUNCTION        1.58          1.911        0.000
  WS02005124           JUNCTION        1.51          1.752        0.000
  WS02005126           JUNCTION        1.62          1.621        0.000
  WS02005127           JUNCTION        1.66          1.473        0.000
  WS02005129           JUNCTION        1.64          1.259        0.000
  WS02005131           JUNCTION        0.06          0.004        0.000
  WS02005132           JUNCTION        1.87          1.228        0.000
  WS02005133           JUNCTION        1.88          1.370        0.000
  WS02005135           JUNCTION        1.91          1.675        0.000
  WS02005137           JUNCTION        2.00          1.978        0.000
  WS02005138           JUNCTION        2.02          2.324        0.000
  WS02005140           JUNCTION        2.03          2.401        0.000
  WS02005142           JUNCTION        2.12          2.515        0.000
  WS02005144           JUNCTION        2.15          2.589        0.000
  WS02005145           JUNCTION        2.21          2.610        0.000
  WS02005147           JUNCTION        2.21          2.398        0.000
  WS02005152           JUNCTION        2.26          2.251        0.000
  WS02005154           JUNCTION        2.28          2.064        0.000
  WS02005155           JUNCTION        2.39          2.059        0.000
  WS02005162           JUNCTION        1.44          2.826        0.000
  WS02005163           JUNCTION        1.41          2.896        0.000
  WS02005164           JUNCTION        1.35          2.897        0.000
  WS02005165           JUNCTION        1.26          2.922        0.000
  WS02005166           JUNCTION        1.20          2.966        0.000
  WS02005167           JUNCTION        1.19          2.963        0.000
  WS02005170           JUNCTION        1.05          2.997        0.000
  WS02005171           JUNCTION        1.02          3.004        0.000
  WS02005175           JUNCTION        1.05          2.902        0.000
  WS02005176           JUNCTION        1.01          2.831        0.000
  WS02005180           JUNCTION        0.97          2.830        0.000
  WS02005181           JUNCTION        0.91          2.834        0.000
  WS02005183           JUNCTION        0.74          2.743        0.000
  WS02005184           JUNCTION        0.70          2.689        0.000
  WS02005185           JUNCTION        0.56          2.561        0.000
  WS02005186           JUNCTION        0.60          2.562        0.000
  WS02005188           JUNCTION        1.49          2.697        0.180
  WS02005191           JUNCTION        1.55          2.640        0.309
  WS02005192           JUNCTION        1.58          2.395        0.424
  WS02005193           JUNCTION        1.62          2.617        0.000
  WS02005196           JUNCTION        1.59          2.386        0.320
  WS02006109           JUNCTION        2.06          1.708        0.130
  WS02006110           JUNCTION        1.54          1.845        0.000
  WS02006111           JUNCTION        1.07          1.877        0.000
  WS02006112           JUNCTION        1.35          1.683        0.000
  WS02006113           JUNCTION        1.34          1.933        0.000
  WS02006115           JUNCTION        1.34          1.413        0.886
  WS02006116           JUNCTION        1.35          1.370        0.980
  WS02006183           JUNCTION       28.00          0.000        0.000
  WS02006228           JUNCTION        2.25          1.467        0.764
  WS02006229           JUNCTION        2.21          1.198        1.256
  WS02006231           JUNCTION        2.38          1.091        0.452
  WS02006232           JUNCTION        2.23          1.243        0.246
  WS02006234           JUNCTION        2.09          1.257        0.000
  WS02006235           JUNCTION        2.20          1.294        0.000
  WS02006238           JUNCTION        2.21          1.434        0.000
  WS02006239           JUNCTION        2.23          1.329        0.000
  WS02006242           JUNCTION        2.18          0.849        0.000
  WS02006240           JUNCTION        2.13          1.403        0.000
  WS02006243           JUNCTION        2.07          0.780        0.000
  WS02006245           JUNCTION        2.06          0.805        0.050
  WS02006247           JUNCTION        2.06          0.699        0.061
  WS02006248           JUNCTION        0.69          0.077        0.000
  WS02006249           JUNCTION        1.90          0.388        0.000
  WS02006251           JUNCTION        1.73          1.510        0.000
  WS02006253           JUNCTION        1.42          2.454        0.000
  WS02618401           JUNCTION       28.00          0.000        0.000
  WS8802               JUNCTION       28.00          0.000        4.942
  WSA1649              JUNCTION       28.00          0.000        0.000
  XR-Inflow            JUNCTION        7.46          5.650        0.000
  WS02004114           JUNCTION        7.51          5.505        1.010
  
  
  *********************
  Node Flooding Summary
  *********************
  
  Flooding refers to all water that overflows a node, whether it ponds or not.
  --------------------------------------------------------------------------
                                                             Total   Maximum
                                 Maximum   Time of Max       Flood    Ponded
                        Hours       Rate    Occurrence      Volume     Depth
  Node                 Flooded       MLD   days hr:min    10^6 ltr    Meters
  --------------------------------------------------------------------------
  WS02003090              0.01      1.56      0  01:48       0.000     0.000
  WS02003110              0.01      5.36      0  01:46       0.000     0.000
  WS02003111              1.21     21.67      0  01:53       0.435     0.000
  WS02003115              0.01      0.54      0  01:48       0.000     0.000
  WS02003201              0.01      1.23      0  01:48       0.000     0.000
  WS02003203              0.01      4.41      0  01:48       0.000     0.000
  WS02003215              0.01      0.63      0  01:48       0.000     0.000
  WS02005122              0.23      4.27      0  01:50       0.017     0.000
  WS02005123              0.01      0.78      0  01:49       0.000     0.000
  WS02005124              0.01     23.44      0  01:49       0.002     0.000
  WS02005126              0.01     20.14      0  01:49       0.001     0.000
  WS02005127              0.01     21.46      0  01:49       0.000     0.000
  WS02005129              0.01     31.13      0  01:49       0.001     0.000
  WS02005131              0.05     20.50      0  01:50       0.022     0.000
  WS02005132              0.55     40.83      0  01:48       0.359     0.000
  WS02005133              0.01     33.38      0  01:48       0.001     0.000
  WS02005135              0.01     31.02      0  01:48       0.001     0.000
  WS02005137              0.01     30.02      0  01:48       0.001     0.000
  WS02005138              0.01     24.85      0  01:48       0.000     0.000
  WS02005140              0.01     17.75      0  01:48       0.000     0.000
  WS02005142              0.01     21.33      0  01:48       0.000     0.000
  WS02005144              0.01     17.32      0  01:48       0.000     0.000
  WS02005145              0.01      6.86      0  01:48       0.000     0.000
  WS02005147              0.01     13.45      0  01:48       0.000     0.000
  WS02005152              0.01     17.26      0  01:47       0.000     0.000
  WS02005154              0.01      9.20      0  01:47       0.000     0.000
  WS02005155              0.01     11.91      0  01:46       0.000     0.000
  WS02005162              0.01      5.66      0  01:48       0.000     0.000
  WS02005163              0.01      2.16      0  01:50       0.000     0.000
  WS02005164              0.01      0.38      0  01:51       0.000     0.000
  WS02005165              0.01     18.05      0  01:49       0.000     0.000
  WS02005166              0.01      8.94      0  01:49       0.000     0.000
  WS02005167              0.01     20.62      0  01:50       0.000     0.000
  WS02005170              0.01     25.84      0  01:50       0.000     0.000
  WS02005171              0.01     25.20      0  01:50       0.000     0.000
  WS02005175              0.01     26.43      0  01:50       0.000     0.000
  WS02005176              0.01     23.30      0  01:50       0.000     0.000
  WS02005180              0.01     24.42      0  01:51       0.000     0.000
  WS02005181              0.01     22.30      0  01:51       0.000     0.000
  WS02005183              0.01     16.48      0  01:51       0.000     0.000
  WS02005184              0.01     21.71      0  01:51       0.000     0.000
  WS02005185              0.01     19.45      0  01:51       0.000     0.000
  WS02005186              0.01     18.04      0  01:51       0.005     0.000
  WS02005193              0.01      4.18      0  03:12       0.000     0.000
  WS02006110              0.01      0.63      0  01:51       0.000     0.000
  WS02006111              0.01     12.49      0  01:51       0.000     0.000
  WS02006112              0.01      0.70      0  01:51       0.000     0.000
  WS02006113              0.01      0.15      0  01:51       0.000     0.000
  WS02006234              0.01      5.67      0  02:51       0.000     0.000
  WS02006235              0.01      8.88      0  02:55       0.001     0.000
  WS02006238              0.01      8.78      0  02:55       0.000     0.000
  WS02006239              0.01      0.88      0  03:10       0.000     0.000
  WS02006242              0.01      3.66      0  03:10       0.000     0.000
  WS02006240              0.01      3.66      0  03:10       0.000     0.000
  WS02006243              0.01      1.84      0  03:10       0.000     0.000
  WS02006248              0.01      1.76      0  01:51       0.000     0.000
  WS02006249              0.72     46.94      0  01:53       0.621     0.000
  WS02006251              0.01      8.68      0  03:12       0.000     0.000
  WS02006253              0.01      3.97      0  02:58       0.000     0.000
  XR-Inflow               2.61    327.01      0  02:10      17.548     0.000
  JK-storage              0.11      4.10      0  01:56       0.013     0.000
  
  
  **********************
  Storage Volume Summary
  **********************
  
  --------------------------------------------------------------------------------------------------
                         Average     Avg  Evap Exfil       Maximum     Max    Time of Max    Maximum
                          Volume    Pcnt  Pcnt  Pcnt        Volume    Pcnt     Occurrence    Outflow
  Storage Unit           1000 m3    Full  Loss  Loss       1000 m3    Full    days hr:min        MLD
  --------------------------------------------------------------------------------------------------
  XR-storage               0.045      72     0     0         0.060      96       0  01:52     114.98
  CC-storage               0.067      42     0     0         0.152      96       0  01:56      69.60
  JK-storage               0.066      49     0     0         0.136     100       0  01:54      67.97
  
  
  ***********************
  Outfall Loading Summary
  ***********************
  
  ---------------------------------------------------------------------------------------------------------------------------------
                         Flow       Avg       Max       Total         Total         Total         Total         Total         Total
                         Freq      Flow      Flow      Volume           COD         NH3-N            TN            TP            SS
  Outfall Node           Pcnt       MLD       MLD    10^6 ltr            kg            kg            kg            kg            kg
  ---------------------------------------------------------------------------------------------------------------------------------
  outfall-24            68.09     51.56     82.50      13.331      1800.579         0.000         0.000         0.000         0.000
  outfall-2              0.00      0.00      0.00       0.000         0.000         0.000         0.000         0.000         0.000
  outfall-5             22.64     50.19     80.14       4.309       842.267         0.000         0.000         0.000         0.000
  outfall-8             20.78     19.43     29.14       1.531       281.752         0.000         0.000         0.000         0.000
  outfall-14             0.00      0.00      0.00       0.000         0.000         0.000         0.000         0.000         0.000
  outfall-16             0.00      0.00      0.00       0.000         0.000         0.000         0.000         0.000         0.000
  outfall-17             0.00      0.00      0.00       0.000         0.000         0.000         0.000         0.000         0.000
  outfall-27             7.77     16.43     35.04       0.484       222.951         0.000         0.000         0.000         0.000
  outfall-28             8.64     17.22     33.41       0.565       251.115         0.000         0.000         0.000         0.000
  67                    14.91     14.73     24.02       0.833       194.299         0.000         0.000         0.000         0.000
  12                   100.00    114.82    296.85      71.877     10059.665         0.000         0.000         0.000         0.000
  ---------------------------------------------------------------------------------------------------------------------------------
  System                22.08    284.37    296.85      92.930     13652.629         0.000         0.000         0.000         0.000
  
  
  ********************
  Link Flow Summary
  ********************
  
  -----------------------------------------------------------------------------
                                 Maximum  Time of Max   Maximum    Max/    Max/
                                  |Flow|   Occurrence   |Veloc|    Full    Full
  Link                 Type          MLD  days hr:min     m/sec    Flow   Depth
  -----------------------------------------------------------------------------
  WSL49                CONDUIT    314.68     0  02:00      3.32    3.91    1.00
  WSL50                CONDUIT     48.91     0  01:50      2.64    3.38    1.00
  WSL51                CONDUIT     48.46     0  01:50      2.01    4.92    1.00
  WSL52                CONDUIT     48.43     0  01:50      1.98    2.25    1.00
  WSL53                CONDUIT     48.38     0  01:50      1.98    5.02    1.00
  WSL54                CONDUIT     48.36     0  01:50      1.98    3.87    1.00
  WSL55                CONDUIT     48.31     0  01:50      1.98    1.27    1.00
  WSL77                CONDUIT     48.28     0  01:50      1.98    2.53    1.00
  WSL78                CONDUIT     48.24     0  01:50      1.97    3.17    1.00
  WSL79                CONDUIT     48.18     0  01:50      1.97    1.65    1.00
  WSL80                CONDUIT     48.11     0  01:50      1.97    1.11    1.00
  WSL81                CONDUIT     48.04     0  01:50      1.97    3.55    1.00
  WSL82                CONDUIT     48.00     0  01:50      1.96    0.63    1.00
  WSL83                CONDUIT     47.99     0  01:50      2.93    0.60    1.00
  WSL84                CONDUIT     47.13     0  01:53      1.96    1.43    1.00
  WSL85                CONDUIT     29.06     0  01:54      1.71    0.78    1.00
  WSL86                CONDUIT     29.11     0  01:54      1.72    1.29    1.00
  WSL122               CONDUIT     40.73     0  01:48      1.67    4.07    1.00
  WSL123               CONDUIT     47.94     0  01:50      2.42    1.78    1.00
  WSL144               CONDUIT     36.18     0  01:48      1.48    1.42    1.00
  WSL145               CONDUIT     40.68     0  01:48      1.67    3.84    1.00
  WSL146               CONDUIT     49.59     0  01:48      2.03    3.63    1.00
  WSL147               CONDUIT     40.06     0  01:48      1.64    2.07    1.00
  WSL148               CONDUIT     40.07     0  01:48      1.64    3.81    1.00
  WSL149               CONDUIT     49.59     0  01:48      2.03    6.50    1.00
  WSL150               CONDUIT     47.91     0  01:50      1.96    1.58    1.00
  WSL151               CONDUIT     47.92     0  01:50      2.02    1.23    1.00
  WSL500               CONDUIT     35.44     0  01:53      1.80    1.17    1.00
  WSL502               CONDUIT     47.06     0  01:53      2.01    0.71    1.00
  WSL508               CONDUIT     37.89     0  01:52      1.55    1.41    1.00
  WSL509               CONDUIT     37.76     0  01:52      1.55    1.68    1.00
  WSL551               CONDUIT     43.48     0  01:53      1.78    1.01    1.00
  WSL553               CONDUIT     26.45     0  01:48      1.24    0.76    1.00
  WSL554               CONDUIT     22.08     0  01:48      1.07    1.14    1.00
  WSL555               CONDUIT     20.54     0  01:48      1.00    0.86    1.00
  WSL1465              CONDUIT     48.84     0  03:30      1.43    0.44    1.00
  WSL1472              CONDUIT    220.78     0  02:01      2.26    2.52    1.00
  WSL1475              CONDUIT    329.37     0  02:00      3.51    3.52    0.88
  WSL1476              CONDUIT     94.17     0  02:00      2.39    0.46    0.96
  WSL1477              CONDUIT     58.42     0  02:00      3.84    2.31    0.60
  WSL1490              CONDUIT     50.15     0  03:28      1.37    0.81    1.00
  WSL1491              CONDUIT     71.27     0  03:59      1.51    0.42    1.00
  WSL1492              CONDUIT     47.28     0  03:35      1.27    0.73    1.00
  WSL1506              CONDUIT      0.33     0  01:54      0.41    0.00    0.26
  WSL1507              CONDUIT      1.76     0  01:49      0.22    0.02    0.52
  WSL1508              CONDUIT     23.64     0  01:59      1.01    0.67    0.60
  WSL1512              CONDUIT     23.85     0  02:00      0.67    0.16    0.54
  WSL1513              CONDUIT     23.99     0  02:00      0.69    1.41    0.75
  WSL1515              CONDUIT    231.30     0  01:53      3.62    2.26    0.69
  WSL1516              CONDUIT     51.33     0  01:55      3.64    0.18    0.66
  WSL1518              CONDUIT     43.09     0  01:57      1.24    0.84    0.75
  WSL1519              CONDUIT     43.02     0  01:59      1.28    1.07    0.73
  WSL1521              CONDUIT     43.18     0  01:59      1.34    1.24    0.70
  WSL1525              CONDUIT     47.19     0  01:53      2.10    0.88    1.00
  WSL1526              CONDUIT     34.10     0  03:01      1.78    0.56    1.00
  WSL1529              CONDUIT     35.57     0  03:01      1.72    0.91    1.00
  WSL1530              CONDUIT     35.67     0  03:01      2.10    1.91    1.00
  WSL1532              CONDUIT     44.89     0  01:49      1.84    1.08    1.00
  WSL1543              CONDUIT     43.06     0  01:58      1.24    1.34    0.75
  WSL1545              CONDUIT     36.12     0  01:48      1.48    1.49    1.00
  WSL1641              CONDUIT     37.59     0  01:52      1.54    1.58    1.00
  WSL1642              CONDUIT     30.59     0  01:52      1.25    0.88    1.00
  WSL1643              CONDUIT     30.44     0  01:52      1.25    0.92    1.00
  WSL1644              CONDUIT     30.29     0  01:52      1.24    1.59    1.00
  WSL1646              CONDUIT     23.67     0  01:52      0.97    0.70    1.00
  WSL1647              CONDUIT     23.55     0  01:52      1.17    0.81    1.00
  WSL1652              CONDUIT     17.52     0  01:50      1.07    1.05    1.00
  WSL1764              CONDUIT     35.61     0  03:01      1.46    0.66    1.00
  WSL1931              CONDUIT     16.96     0  01:51      1.01    1.47    1.00
  WSL1932              CONDUIT     14.08     0  01:51      0.89    0.92    1.00
  WSL1934              CONDUIT     13.00     0  01:51      1.17    0.45    1.00
  WSL1935              CONDUIT     13.57     0  01:51      1.44    0.71    1.00
  WSL1961              CONDUIT     33.58     0  11:01      2.63    0.07    0.59
  WSL1964              CONDUIT     50.75     0  02:02      1.21    0.28    1.00
  WSL2010              CONDUIT    100.95     0  02:01      1.49    1.29    1.00
  WSL2011              CONDUIT    101.14     0  02:01      1.49    0.65    1.00
  WSL2012              CONDUIT    101.36     0  02:01      1.49    1.54    1.00
  WSL2013              CONDUIT    116.17     0  01:52      1.71    2.89    1.00
  WSL2014              CONDUIT    139.52     0  01:53      2.06    2.23    1.00
  WSL2015              CONDUIT    139.62     0  01:53      2.06    1.87    1.00
  WSL2016              CONDUIT    156.24     0  01:53      2.30    1.80    1.00
  WSL2017              CONDUIT    156.32     0  01:53      2.30    1.90    1.00
  WSL2018              CONDUIT    183.90     0  01:54      2.95    1.10    0.95
  WSL2019              CONDUIT    190.43     0  02:00      3.15    1.12    0.97
  WSL2028              CONDUIT    100.75     0  02:01      1.48    1.08    1.00
  WSL2029              CONDUIT    157.29     0  01:53      2.42    1.99    0.98
  WSL2031              CONDUIT     12.67     0  01:51      1.40    0.45    1.00
  WSL2032              CONDUIT     12.22     0  01:53      1.65    0.83    1.00
  WSL2034              CONDUIT     37.97     0  01:52      1.55    1.14    1.00
  WSL2037              CONDUIT     38.08     0  01:52      1.56    1.95    1.00
  WSL2038              CONDUIT     62.82     0  01:52      2.57    3.13    1.00
  WSL2039              CONDUIT     63.09     0  01:52      2.58    3.24    1.00
  WSL2041              CONDUIT     62.97     0  01:52      2.58    3.09    1.00
[...]
  WSL2294                     1.54      2.06      1.54      3.85         1.54
  WSL2295                     1.34      1.54      1.34      4.76         1.34
  WSL2296                     1.07      1.07      2.03      0.01         0.01
  WSL2297                     1.34      1.35      1.34      2.94         1.34
  WSL2298                     1.07      1.34      1.07      4.98         1.07
  WSL2301                     1.34      1.34      1.35      0.01         0.08
  WSL2302                     1.35      1.35      1.35      1.71         1.33
  WSL2357                     1.58      1.60      1.58      1.57         1.49
  WSL2358                     1.56      1.58      1.65      0.99         0.96
  WSL2359                     1.51      1.51      1.62      0.01         0.01
  WSL2361                     1.62      1.62      1.66      0.84         0.84
  WSL2362                     1.66      1.66      1.73      0.48         0.51
  WSL2441                     2.06      2.25      2.06      3.37         2.06
  WSL2442                     2.61      2.66      2.61      2.90         2.56
  WSL2443                     2.38      2.38      2.66      0.06         0.05
  WSL2444                     2.23      2.23      2.38      0.06         0.06
  WSL2446                     2.09      2.09      2.23      0.01         0.01
  WSL2447                     2.09      2.20      2.09      4.35         2.08
  WSL2448                     2.19      2.21      2.20      2.52         1.57
  WSL2449                     2.20      2.23      2.21      1.11         0.74
  WSL2450                     2.13      2.13      2.23      0.01         0.01
  WSL2451                     2.13      2.18      2.13      3.82         1.00
  WSL2452                     2.07      2.07      2.18      0.01         0.01
  WSL2454                     2.06      2.06      2.07      0.01         0.02
  WSL2478                     2.06      2.06      2.06      1.13         0.67
  WSL2479                     1.80      1.80      2.06      0.01         0.01
  WSL2480                     1.80      1.90      1.80      2.81         1.78
  WSL2482                     1.73      1.73      1.90      1.51         1.47
  WSL2484                     1.42      1.42      1.73      0.42         0.44
  WSL2493                     2.21      2.21      2.25      0.05         0.17
  WSL2868                     0.01      0.01      0.47      0.01         0.01
  5                           1.05      1.05      1.07      0.08         0.09
  WSL348                      7.46      7.46      7.51      2.69         2.69
  WSL175                      7.51      7.51      7.51      7.92         7.08
  WSL1467                     0.45      0.47      0.46      0.64         0.43
  WSL1473                     0.33      0.33      0.41      0.01         0.01
  XRpipe                      7.51      7.51     27.96      0.01         0.01
  8                           0.68      0.68      0.79      0.79         0.66
  28                          0.01      0.01      0.15      0.15         0.01
  30                          0.01      0.01      0.06      0.01         0.01
  2                           0.01      0.33      0.02      0.50         0.01
  
  
  ***************
  Pumping Summary
  ***************
  
  ---------------------------------------------------------------------------------------------------------
                                                  Min       Avg       Max     Total     Power    % Time Off
                        Percent   Number of      Flow      Flow      Flow    Volume     Usage    Pump Curve
  Pump                 Utilized   Start-Ups       MLD       MLD       MLD  10^6 ltr     Kw-hr    Low   High
  ---------------------------------------------------------------------------------------------------------
  XR-Pump-1               99.83           1      0.00      8.12      8.12     9.457     96.72    0.0    0.0
  XR-Pump-3               67.25          97      0.00      8.12      8.12     6.371     55.99    0.0    0.0
  XR-Pump-2               91.54          45      0.00      8.12      8.12     8.671     86.18    0.0    0.0
  XR-Pump-4               32.09          93      0.00      8.12      8.12     3.040     13.37    0.0    0.0
  CC-Pump-1               18.95          29      0.00     17.28     17.28     3.820     25.46    0.0    0.0
  CC-Pump-2                4.20           3      0.00     17.28     17.28     0.847      2.39    0.0    0.0
  JK-Pump-1               16.34          23      0.00     17.28     17.28     3.295     19.43    0.0    0.0
  JK-Pump-2                4.28           3      0.00     17.28     17.28     0.863      2.90    0.0    0.0
  
  
  ***************************
  Link Pollutant Load Summary
  ***************************
  
  ------------------------------------------------------------------------------------------
                                 COD         NH3-N            TN            TP            SS
  Link                            kg            kg            kg            kg            kg
  ------------------------------------------------------------------------------------------
  WSL49                     9763.471         0.000         0.000         0.000         0.000
  WSL50                     1238.094         0.000         0.000         0.000         0.000
  WSL51                     1227.348         0.000         0.000         0.000         0.000
  WSL52                     1223.742         0.000         0.000         0.000         0.000
  WSL53                     1217.790         0.000         0.000         0.000         0.000
  WSL54                     1215.383         0.000         0.000         0.000         0.000
  WSL55                     1207.360         0.000         0.000         0.000         0.000
  WSL77                     1204.896         0.000         0.000         0.000         0.000
  WSL78                     1199.575         0.000         0.000         0.000         0.000
  WSL79                     1192.186         0.000         0.000         0.000         0.000
  WSL80                     1182.874         0.000         0.000         0.000         0.000
  WSL81                     1172.395         0.000         0.000         0.000         0.000
  WSL82                     1166.514         0.000         0.000         0.000         0.000
  WSL83                     1164.890         0.000         0.000         0.000         0.000
  WSL84                      742.549         0.000         0.000         0.000         0.000
  WSL85                      299.699         0.000         0.000         0.000         0.000
  WSL86                      288.051         0.000         0.000         0.000         0.000
  WSL122                     755.020         0.000         0.000         0.000         0.000
  WSL123                    1159.194         0.000         0.000         0.000         0.000
  WSL144                     526.847         0.000         0.000         0.000         0.000
  WSL145                     745.903         0.000         0.000         0.000         0.000
  WSL146                     847.387         0.000         0.000         0.000         0.000
  WSL147                     844.861         0.000         0.000         0.000         0.000
  WSL148                     847.763         0.000         0.000         0.000         0.000
  WSL149                    1144.888         0.000         0.000         0.000         0.000
  WSL150                    1153.858         0.000         0.000         0.000         0.000
  WSL151                    1155.832         0.000         0.000         0.000         0.000
  WSL500                     634.778         0.000         0.000         0.000         0.000
  WSL502                     732.202         0.000         0.000         0.000         0.000
  WSL508                     451.397         0.000         0.000         0.000         0.000
  WSL509                     439.847         0.000         0.000         0.000         0.000
  WSL551                     505.399         0.000         0.000         0.000         0.000
  WSL553                     305.642         0.000         0.000         0.000         0.000
  WSL554                     266.443         0.000         0.000         0.000         0.000
  WSL555                     271.357         0.000         0.000         0.000         0.000
  WSL1465                   3868.092         0.000         0.000         0.000         0.000
  WSL1472                   7942.622         0.000         0.000         0.000         0.000
  WSL1475                   9905.744         0.000         0.000         0.000         0.000
  WSL1476                   1780.411         0.000         0.000         0.000         0.000
  WSL1477                    534.315         0.000         0.000         0.000         0.000
  WSL1490                   3729.606         0.000         0.000         0.000         0.000
  WSL1491                   3768.612         0.000         0.000         0.000         0.000
  WSL1492                   3822.440         0.000         0.000         0.000         0.000
  WSL1506                      9.875         0.000         0.000         0.000         0.000
  WSL1507                     25.987         0.000         0.000         0.000         0.000
  WSL1508                    321.629         0.000         0.000         0.000         0.000
  WSL1512                    321.674         0.000         0.000         0.000         0.000
  WSL1513                    333.316         0.000         0.000         0.000         0.000
  WSL1515                   3969.832         0.000         0.000         0.000         0.000
  WSL1516                    538.481         0.000         0.000         0.000         0.000
  WSL1518                    520.618         0.000         0.000         0.000         0.000
  WSL1519                    524.887         0.000         0.000         0.000         0.000
  WSL1521                    531.317         0.000         0.000         0.000         0.000
  WSL1525                    751.518         0.000         0.000         0.000         0.000
  WSL1526                    604.552         0.000         0.000         0.000         0.000
  WSL1529                    647.417         0.000         0.000         0.000         0.000
  WSL1530                    668.290         0.000         0.000         0.000         0.000
  WSL1532                    776.215         0.000         0.000         0.000         0.000
  WSL1543                    520.629         0.000         0.000         0.000         0.000
  WSL1545                    518.036         0.000         0.000         0.000         0.000
  WSL1641                    421.253         0.000         0.000         0.000         0.000
  WSL1642                    374.610         0.000         0.000         0.000         0.000
  WSL1643                    355.278         0.000         0.000         0.000         0.000
  WSL1644                    337.903         0.000         0.000         0.000         0.000
  WSL1646                    291.357         0.000         0.000         0.000         0.000
  WSL1647                    274.861         0.000         0.000         0.000         0.000
  WSL1652                    198.819         0.000         0.000         0.000         0.000
  WSL1764                    656.927         0.000         0.000         0.000         0.000
  WSL1931                    184.999         0.000         0.000         0.000         0.000
  WSL1932                    167.060         0.000         0.000         0.000         0.000
  WSL1934                    146.450         0.000         0.000         0.000         0.000
  WSL1935                    138.844         0.000         0.000         0.000         0.000
  WSL1961                   3619.448         0.000         0.000         0.000         0.000
  WSL1964                   3687.486         0.000         0.000         0.000         0.000
  WSL2010                   2568.538         0.000         0.000         0.000         0.000
  WSL2011                   2602.195         0.000         0.000         0.000         0.000
  WSL2012                   2637.465         0.000         0.000         0.000         0.000
  WSL2013                   2770.118         0.000         0.000         0.000         0.000
  WSL2014                   3338.200         0.000         0.000         0.000         0.000
  WSL2015                   3354.428         0.000         0.000         0.000         0.000
  WSL2016                   3625.500         0.000         0.000         0.000         0.000
  WSL2017                   3647.713         0.000         0.000         0.000         0.000
  WSL2018                   3913.958         0.000         0.000         0.000         0.000
  WSL2019                   3931.594         0.000         0.000         0.000         0.000
  WSL2028                   2535.654         0.000         0.000         0.000         0.000
  WSL2029                   3684.616         0.000         0.000         0.000         0.000
  WSL2031                    124.393         0.000         0.000         0.000         0.000
  WSL2032                    111.182         0.000         0.000         0.000         0.000
  WSL2034                    460.701         0.000         0.000         0.000         0.000
  WSL2037                    470.801         0.000         0.000         0.000         0.000
  WSL2038                    709.801         0.000         0.000         0.000         0.000
  WSL2039                    759.576         0.000         0.000         0.000         0.000
  WSL2041                    735.337         0.000         0.000         0.000         0.000
  WSL2124                    342.213         0.000         0.000         0.000         0.000
  WSL2126                    349.277         0.000         0.000         0.000         0.000
  WSL2127                    359.636         0.000         0.000         0.000         0.000
  WSL2128                    369.703         0.000         0.000         0.000         0.000
  WSL2130                    599.752         0.000         0.000         0.000         0.000
  WSL2146                    609.265         0.000         0.000         0.000         0.000
  WSL2147                    616.224         0.000         0.000         0.000         0.000
  WSL2148                    624.394         0.000         0.000         0.000         0.000
  WSL2294                   2374.377         0.000         0.000         0.000         0.000
  WSL2295                   2387.769         0.000         0.000         0.000         0.000
  WSL2296                   2449.090         0.000         0.000         0.000         0.000
  WSL2297                   2477.270         0.000         0.000         0.000         0.000
  WSL2298                   2413.805         0.000         0.000         0.000         0.000
  WSL2301                   2490.613         0.000         0.000         0.000         0.000
  WSL2302                   2525.687         0.000         0.000         0.000         0.000
  WSL2357                    174.228         0.000         0.000         0.000         0.000
  WSL2358                    184.663         0.000         0.000         0.000         0.000
  WSL2359                    193.496         0.000         0.000         0.000         0.000
  WSL2361                    359.075         0.000         0.000         0.000         0.000
  WSL2362                    367.916         0.000         0.000         0.000         0.000
  WSL2441                   2360.445         0.000         0.000         0.000         0.000
  WSL2442                   1563.812         0.000         0.000         0.000         0.000
  WSL2443                   1553.096         0.000         0.000         0.000         0.000
  WSL2444                   1532.732         0.000         0.000         0.000         0.000
  WSL2446                   1518.779         0.000         0.000         0.000         0.000
  WSL2447                   1497.643         0.000         0.000         0.000         0.000
  WSL2448                   1475.310         0.000         0.000         0.000         0.000
  WSL2449                    908.796         0.000         0.000         0.000         0.000
  WSL2450                    880.925         0.000         0.000         0.000         0.000
  WSL2451                    857.706         0.000         0.000         0.000         0.000
  WSL2452                    833.943         0.000         0.000         0.000         0.000
  WSL2454                    802.208         0.000         0.000         0.000         0.000
  WSL2478                    785.990         0.000         0.000         0.000         0.000
  WSL2479                    736.289         0.000         0.000         0.000         0.000
  WSL2480                   1331.931         0.000         0.000         0.000         0.000
  WSL2482                   1565.661         0.000         0.000         0.000         0.000
  WSL2484                   1483.841         0.000         0.000         0.000         0.000
  WSL2493                   1583.808         0.000         0.000         0.000         0.000
  WSL2867                   3981.204         0.000         0.000         0.000         0.000
  WSL2868                   4006.765         0.000         0.000         0.000         0.000
  5                          268.977         0.000         0.000         0.000         0.000
  WSL348                    5174.994         0.000         0.000         0.000         0.000
  WSL175                    5247.209         0.000         0.000         0.000         0.000
  WSL1467                   7891.154         0.000         0.000         0.000         0.000
  WSL1473                   7978.480         0.000         0.000         0.000         0.000
  XRpipe                    5377.071         0.000         0.000         0.000         0.000
  8                          842.267         0.000         0.000         0.000         0.000
  19                           0.000         0.000         0.000         0.000         0.000
  17                           0.000         0.000         0.000         0.000         0.000
  4                            0.000         0.000         0.000         0.000         0.000
  outletpipe                1800.579         0.000         0.000         0.000         0.000
  11                         281.752         0.000         0.000         0.000         0.000
  20                           0.000         0.000         0.000         0.000         0.000
  1                          222.951         0.000         0.000         0.000         0.000
  28                         251.115         0.000         0.000         0.000         0.000
  30                         194.299         0.000         0.000         0.000         0.000
  2                        1.006e+04         0.000         0.000         0.000         0.000
  XR-Pump-1                 1262.912         0.000         0.000         0.000         0.000
  XR-Pump-3                  799.839         0.000         0.000         0.000         0.000
  XR-Pump-2                 1147.317         0.000         0.000         0.000         0.000
  XR-Pump-4                  330.022         0.000         0.000         0.000         0.000
  CC-Pump-1                  522.088         0.000         0.000         0.000         0.000
  CC-Pump-2                  212.168         0.000         0.000         0.000         0.000
  JK-Pump-1                  416.891         0.000         0.000         0.000         0.000
  JK-Pump-2                  216.546         0.000         0.000         0.000         0.000
  

  Analysis begun on:  Wed Oct 10 14:05:22 2018
  Analysis ended on:  Wed Oct 10 14:05:34 2018
  Total elapsed time: 00:00:12