
  EPA STORM WATER MANAGEMENT MODEL - VERSION 5.1 (Build 5.2.0.dev5)
  --------------------------------------------------------------

  
  *********************************************************
  NOTE: The summary statistics displayed in this report are
  based on results found at every computational time step,  
  not just on results from each reporting time step.
  *********************************************************
  
  ****************
  Analysis Options
  ****************
  Flow Units ............... MLD
  Process Models:
    Rainfall/Runoff ........ YES
    RDII ................... NO
    Snowmelt ............... NO
    Groundwater ............ NO
    Flow Routing ........... YES
    Ponding Allowed ........ NO
    Water Quality .......... YES
  Infiltration Method ...... GREEN_AMPT
  Flow Routing Method ...... DYNWAVE
  Surcharge Method ......... EXTRAN
  Starting Date ............ 08/28/2015 08:00:00
  Ending Date .............. 08/28/2015 11:50:00
  Antecedent Dry Days ...... 4.0
  Report Time Step ......... 00:01:00
  Wet Time Step ............ 00:01:00
  Dry Time Step ............ 00:01:00
  Routing Time Step ........ 5.00 sec
  Variable Time Step ....... YES
  Maximum Trials ........... 8
  Number of Threads ........ 1
  Head Tolerance ........... 0.001500 m
  
  
  **************************        Volume         Depth
  Runoff Quantity Continuity     hectare-m            mm
  **************************     ---------       -------
  Total Precipitation ......         0.899        14.540
  Evaporation Loss .........         0.000         0.000
  Infiltration Loss ........         0.443         7.165
  Surface Runoff ...........         0.176         2.839
  Final Storage ............         0.281         4.536
  Continuity Error (%) .....        -0.007
  
  
  **************************           COD         NH3-N            TN            TP            SS
  Runoff Quality Continuity             kg            kg            kg            kg            kg
  **************************    ----------    ----------    ----------    ----------    ----------
  Initial Buildup ..........      2504.640         0.000         0.000         0.000         0.000
  Surface Buildup ..........        19.761         0.000         0.000         0.000         0.000
  Wet Deposition ...........         0.000         0.000         0.000         0.000         0.000
  Sweeping Removal .........         0.000         0.000         0.000         0.000         0.000
  Infiltration Loss ........        58.317         0.000         0.000         0.000         0.000
  BMP Removal ..............         0.000         0.000         0.000         0.000         0.000
  Surface Runoff ...........       213.189         0.000         0.000         0.000         0.000
  Remaining Buildup ........      2252.050         0.000         0.000         0.000         0.000
  Continuity Error (%) .....         0.033         0.000         0.000         0.000         0.000
  
  
  **************************        Volume        Volume
  Flow Routing Continuity        hectare-m      10^6 ltr
  **************************     ---------     ---------
  Dry Weather Inflow .......         0.000         0.000
  Wet Weather Inflow .......         0.175         1.753
  Groundwater Inflow .......         0.000         0.000
  RDII Inflow ..............         0.000         0.000
  External Inflow ..........         0.082         0.822
  External Outflow .........         0.213         2.131
  Flooding Loss ............         0.009         0.092
  Evaporation Loss .........         0.000         0.000
  Exfiltration Loss ........         0.000         0.000
  Initial Stored Volume ....         0.000         0.000
  Final Stored Volume ......         0.046         0.463
  Continuity Error (%) .....        -4.351
  
  
  **************************           COD         NH3-N            TN            TP            SS
  Quality Routing Continuity            kg            kg            kg            kg            kg
  **************************    ----------    ----------    ----------    ----------    ----------
  Dry Weather Inflow .......         0.000         0.000         0.000         0.000         0.000
  Wet Weather Inflow .......       212.725         0.000         0.000         0.000         0.000
  Groundwater Inflow .......         0.000         0.000         0.000         0.000         0.000
  RDII Inflow ..............         0.000         0.000         0.000         0.000         0.000
  External Inflow ..........       137.264         0.000         0.000         0.000         0.000
  External Outflow .........       253.453         0.000         0.000         0.000         0.000
  Flooding Loss ............        13.328         0.000         0.000         0.000         0.000
  Exfiltration Loss ........         0.000         0.000         0.000         0.000         0.000
  Mass Reacted .............         0.000         0.000         0.000         0.000         0.000
  Initial Stored Mass ......         0.000         0.000         0.000         0.000         0.000
  Final Stored Mass ........        60.814         0.000         0.000         0.000         0.000
  Continuity Error (%) .....         6.399         0.000         0.000         0.000         0.000
  
  
  *************************
  Highest Continuity Errors
  *************************
  Node WS02006230 (6.18%)
  Node WS02006115 (4.01%)
  Node WS02006242 (3.91%)
  Node WS02006229 (3.84%)
  Node WS02006240 (3.69%)
  
  
  ***************************
  Time-Step Critical Elements
  ***************************
  Link 8 (79.36%)
  Link 17 (10.39%)
  Link WSL2448 (8.40%)
  
  
  ********************************
  Highest Flow Instability Indexes
  ********************************
  Link WSL2302 (2)
  Link WSL2301 (2)
  Link WSL2297 (2)
  Link WSL2296 (2)
  Link WSL2298 (1)
  
  
  *************************
  Routing Time Step Summary
  *************************
  Minimum Time Step           :     0.05 sec
  Average Time Step           :     1.00 sec
  Maximum Time Step           :     5.00 sec
  Percent in Steady State     :    -0.00
  Average Iterations per Step :     2.12
  Percent Not Converging      :     1.33
  
  
  ***************************
  Subcatchment Runoff Summary
  ***************************
  
  ------------------------------------------------------------------------------------------------------------------------------
                            Total      Total      Total      Total     Imperv       Perv      Total       Total     Peak  Runoff
                           Precip      Runon       Evap      Infil     Runoff     Runoff     Runoff      Runoff   Runoff   Coeff
  Subcatchment                 mm         mm         mm         mm         mm         mm         mm    10^6 ltr      MLD
  ------------------------------------------------------------------------------------------------------------------------------
  1                         14.54      13.85       0.00       8.32       6.70       4.91      11.61        0.14     2.64   0.409
  2                         14.54       0.00       0.00       6.86       3.42       0.90       4.32        0.15     2.76   0.297
  3                         14.54       0.00       0.00       6.88       3.37       0.75       4.12        0.21     3.95   0.283
  35                        14.54       0.00       0.00       6.85       3.44       0.94       4.37        0.13     2.52   0.301
  36                        14.54       8.34       0.00       8.03       5.20       1.84       7.04        0.42     7.68   0.308
  40                        14.54       2.28       0.00       7.21       3.92       1.17       5.10        0.20     3.76   0.303
  41                        14.54       0.00       0.00       6.82       3.48       1.13       4.61        0.09     1.72   0.317
  42                        14.54       0.00       0.00       6.83       3.47       1.06       4.52        0.10     1.98   0.311
  43                        14.54       0.00       0.00       6.64       3.58       2.10       5.68        0.02     0.42   0.391
  44                        14.54     117.32       0.00      13.02      32.10      62.92      95.02        0.35     6.47   0.721
  45                        14.54       0.00       0.00       6.76       3.53       1.45       4.98        0.05     1.01   0.342
  46                        14.54       7.00       0.00       7.76       5.08       2.48       7.56        0.16     3.07   0.351
  47                        14.54       0.00       0.00       6.77       3.52       1.41       4.93        0.05     1.08   0.339
  48                        14.54       3.46       0.00       7.29       4.30       1.96       6.26        0.10     1.91   0.348
  55                        14.54       5.15       0.00       7.42       4.75       2.98       7.74        0.06     1.26   0.393
  56                        14.54       7.70       0.00       7.84       5.23       2.63       7.87        0.17     3.19   0.354
  57                        14.54       0.00       0.00       6.88       3.37       0.76       4.13        0.21     3.88   0.284
  59                        14.54       0.00       0.00       6.74       3.54       1.56       5.10        0.04     0.85   0.351
  60                        14.54      11.25       0.00       7.99       6.25       5.73      11.98        0.06     1.23   0.465
  61                        14.54       0.00       0.00       6.93       3.12       0.42       3.55        0.64    11.83   0.244
  64                        14.54       0.00       0.00       6.78       3.52       1.37       4.88        0.06     1.15   0.336
  
  
  ****************************
  Subcatchment Washoff Summary
  ****************************
  
  ------------------------------------------------------------------------------------------
                                 COD         NH3-N            TN            TP            SS
  Subcatchment                    kg            kg            kg            kg            kg
  ------------------------------------------------------------------------------------------
  1                           15.763         0.000         0.000         0.000         0.000
  2                            0.000         0.000         0.000         0.000         0.000
  3                            0.000         0.000         0.000         0.000         0.000
  35                          16.470         0.000         0.000         0.000         0.000
  36                          98.138         0.000         0.000         0.000         0.000
  40                          31.146         0.000         0.000         0.000         0.000
  41                          11.582         0.000         0.000         0.000         0.000
  42                          13.153         0.000         0.000         0.000         0.000
  43                           3.157         0.000         0.000         0.000         0.000
  44                          91.014         0.000         0.000         0.000         0.000
  45                           7.066         0.000         0.000         0.000         0.000
  46                          38.284         0.000         0.000         0.000         0.000
  47                           7.489         0.000         0.000         0.000         0.000
  48                          18.562         0.000         0.000         0.000         0.000
  55                          14.368         0.000         0.000         0.000         0.000
  56                          42.189         0.000         0.000         0.000         0.000
  57                          24.529         0.000         0.000         0.000         0.000
  59                           6.037         0.000         0.000         0.000         0.000
  60                          17.979         0.000         0.000         0.000         0.000
  61                          67.516         0.000         0.000         0.000         0.000
  64                           7.956         0.000         0.000         0.000         0.000
  ------------------------------------------------------------------------------------------
  System                     532.396         0.000         0.000         0.000         0.000
  
  
  ******************
  Node Depth Summary
  ******************
  
  ---------------------------------------------------------------------------------
                                 Average  Maximum  Maximum  Time of Max    Reported
                                   Depth    Depth      HGL   Occurrence   Max Depth
  Node                 Type       Meters   Meters   Meters  days hr:min      Meters
  ---------------------------------------------------------------------------------
  WS01000070           JUNCTION     0.00     0.00     0.00     0  00:00        0.00
  WS01000323           JUNCTION     0.00     0.00     0.00     0  00:00        0.00
  WS01000533           JUNCTION     0.00     0.00     6.86     0  00:00        0.00
  WS01005172           JUNCTION     0.00     0.00     0.00     0  00:00        0.00
  WS01005181           JUNCTION     0.00     0.00     0.00     0  00:00        0.00
  WS01009841           JUNCTION     0.00     0.00     0.00     0  00:00        0.00
  WS02000078           JUNCTION     0.00     0.00     0.00     0  00:00        0.00
  WS02000112           JUNCTION     0.00     0.00     0.00     0  00:00        0.00
  WS02000136           JUNCTION     0.00     0.00     0.00     0  00:00        0.00
  WS02004053           JUNCTION     0.00     0.00     0.00     0  00:00        0.00
  WS02004401           JUNCTION     2.15     2.33     8.33     0  02:36        2.33
  WS02005192           JUNCTION     0.43     0.68     8.55     0  02:30        0.67
  WS02005193           JUNCTION     0.47     0.72     8.54     0  02:30        0.71
  WS02005196           JUNCTION     0.45     0.69     8.54     0  02:30        0.69
  WS02006109           JUNCTION     1.55     1.79     8.41     0  01:42        1.73
  WS02006110           JUNCTION     1.57     1.79     8.39     0  01:42        1.75
  WS02006111           JUNCTION     1.58     1.80     8.38     0  01:41        1.76
  WS02006112           JUNCTION     2.03     2.24     8.36     0  01:41        2.21
  WS02006113           JUNCTION     1.58     1.80     8.39     0  01:41        1.75
  WS02006115           JUNCTION     2.05     2.24     8.34     0  01:42        2.23
  WS02006116           JUNCTION     2.11     2.29     8.33     0  02:36        2.29
  WS02006183           JUNCTION     0.00     0.00     0.00     0  00:00        0.00
  WS02006228           JUNCTION     1.53     1.77     8.42     0  01:42        1.71
  WS02006229           JUNCTION     1.49     1.74     8.43     0  01:42        1.67
  WS02006230           JUNCTION     1.43     1.70     8.45     0  01:42        1.62
  WS02006231           JUNCTION     1.29     1.54     8.44     0  01:42        1.46
  WS02006232           JUNCTION     1.17     1.41     8.44     0  01:42        1.34
  WS02006234           JUNCTION     1.05     1.34     8.50     0  01:41        1.21
  WS02006235           JUNCTION     1.04     1.37     8.54     0  01:41        1.20
  WS02006238           JUNCTION     1.03     1.36     8.54     0  01:41        1.19
  WS02006239           JUNCTION     1.01     1.46     8.67     0  01:40        1.17
  WS02006242           JUNCTION     0.93     1.55     8.85     0  01:40        1.17
  WS02006240           JUNCTION     0.93     1.40     8.69     0  01:40        1.29
  WS02006243           JUNCTION     0.81     1.24     8.66     0  01:41        0.96
  WS02006245           JUNCTION     0.75     1.03     8.52     0  01:41        0.89
  WS02006247           JUNCTION     0.73     1.06     8.57     0  01:41        0.87
  WS02006248           JUNCTION     0.66     0.79     8.38     0  02:30        0.79
  WS02006249           JUNCTION     0.66     1.09     8.69     0  01:42        0.82
  WS02006251           JUNCTION     0.61     1.38     9.05     0  01:44        0.82
  WS02006253           JUNCTION     0.49     0.73     8.53     0  02:30        0.73
  WS02618401           JUNCTION     0.00     0.00     0.00     0  00:00        0.00
  WSA1649              JUNCTION     0.00     0.00     0.00     0  00:00        0.00
  outfall-5            OUTFALL      0.11     0.19     7.86     0  02:30        0.19
  outfall-14           OUTFALL      0.09     0.13     7.79     0  02:36        0.13
  outfall-16           OUTFALL      0.00     0.00     8.39     0  00:00        0.00
  CC-storage           STORAGE      2.46     5.63     8.81     0  02:20        5.63
  
  
  *******************
  Node Inflow Summary
  *******************
  
  -------------------------------------------------------------------------------------------------
                                  Maximum  Maximum                  Lateral       Total        Flow
                                  Lateral    Total  Time of Max      Inflow      Inflow     Balance
                                   Inflow   Inflow   Occurrence      Volume      Volume       Error
  Node                 Type           MLD      MLD  days hr:min    10^6 ltr    10^6 ltr     Percent
  -------------------------------------------------------------------------------------------------
  WS01000070           JUNCTION      0.00     0.00     0  00:00           0           0       0.000 ltr
  WS01000323           JUNCTION      0.00     0.00     0  00:00           0           0       0.000 ltr
  WS01000533           JUNCTION      0.00     0.00     0  00:00           0           0       0.000 ltr
  WS01005172           JUNCTION      0.00     0.00     0  00:00           0           0       0.000 ltr
  WS01005181           JUNCTION      0.00     0.00     0  00:00           0           0       0.000 ltr
  WS01009841           JUNCTION      0.00     0.00     0  00:00           0           0       0.000 ltr
  WS02000078           JUNCTION      0.00     0.00     0  00:00           0           0       0.000 ltr
  WS02000112           JUNCTION      0.00     0.00     0  00:00           0           0       0.000 ltr
  WS02000136           JUNCTION      0.00     0.00     0  00:00           0           0       0.000 ltr
  WS02004053           JUNCTION      0.00     0.00     0  00:00           0           0       0.000 ltr
  WS02004401           JUNCTION      0.05    17.17     0  02:36      0.0086       0.895       3.274
  WS02005192           JUNCTION      3.97     7.74     0  01:43       0.223       0.226       1.144
  WS02005193           JUNCTION      0.09    13.68     0  01:42       0.014       0.262       2.850
  WS02005196           JUNCTION      0.12    11.31     0  01:43      0.0183       0.247       2.715
  WS02006109           JUNCTION      0.08    13.42     0  02:36      0.0129        0.72       3.441
  WS02006110           JUNCTION      0.08    13.50     0  02:36      0.0126       0.711       3.532
  WS02006111           JUNCTION      0.24    16.67     0  02:36      0.0352       0.933       2.229
  WS02006112           JUNCTION      0.18    16.83     0  02:36      0.0263        0.94       3.549
  WS02006113           JUNCTION      4.09    16.46     0  02:36       0.235       0.921       2.605
  WS02006115           JUNCTION      0.08    16.91     0  02:36      0.0129       0.924       4.173
  WS02006116           JUNCTION      0.24    17.12     0  02:36      0.0347       0.927       3.772
  WS02006183           JUNCTION      0.00     0.00     0  00:00           0           0       0.000 ltr
  WS02006228           JUNCTION      6.63    13.34     0  02:36       0.378       0.744       2.428
  WS02006229           JUNCTION      0.13    10.82     0  01:42      0.0193       0.404       3.994
  WS02006230           JUNCTION      0.07    12.88     0  01:41      0.0111       0.413       6.584
  WS02006231           JUNCTION      0.13    12.76     0  01:41      0.0197       0.422       3.601
  WS02006232           JUNCTION      2.84    14.62     0  01:39       0.158       0.497       3.121
  WS02006234           JUNCTION      0.14    17.87     0  01:39      0.0208       0.434       3.236
  WS02006235           JUNCTION      0.14    19.48     0  01:39      0.0215       0.432       1.839
  WS02006238           JUNCTION      0.15    21.79     0  01:39      0.0226       0.433       2.263
  WS02006239           JUNCTION      0.11    25.20     0  01:40      0.0167       0.435       3.208
  WS02006242           JUNCTION      0.08    33.27     0  01:40      0.0124       0.457       4.073
  WS02006240           JUNCTION      0.06    28.91     0  01:40     0.00952       0.442       3.834
  WS02006243           JUNCTION      0.17    33.98     0  01:41      0.0259       0.473       3.665
  WS02006245           JUNCTION      0.07    35.31     0  01:41      0.0109        0.47       2.798
  WS02006247           JUNCTION      2.77    35.95     0  01:41       0.164       0.563       2.014
  WS02006248           JUNCTION      0.12    38.97     0  02:30      0.0185        1.54       0.688
  WS02006249           JUNCTION      0.19    38.85     0  02:30      0.0275         1.3       1.115
  WS02006251           JUNCTION      1.32    38.65     0  02:30      0.0735        1.29       1.144
  WS02006253           JUNCTION      0.11    37.74     0  02:30      0.0166        1.23       0.596
  WS02618401           JUNCTION      0.00     0.00     0  00:00           0           0       0.000 ltr
  WSA1649              JUNCTION      0.00     0.00     0  00:00           0           0       0.000 ltr
  outfall-5            OUTFALL       0.00    35.84     0  02:30           0        1.27       0.000
  outfall-14           OUTFALL       0.00    17.17     0  02:36           0        0.86       0.000
  outfall-16           OUTFALL       0.00     0.00     0  00:00           0           0       0.000 ltr
  CC-storage           STORAGE      13.29    13.29     0  03:01       0.914       0.914     -13.542
  
  
  **********************
  Node Surcharge Summary
  **********************
  
  Surcharging occurs when water rises above the top of the highest conduit.
  ---------------------------------------------------------------------
                                               Max. Height   Min. Depth
                                   Hours       Above Crown    Below Rim
  Node                 Type      Surcharged         Meters       Meters
  ---------------------------------------------------------------------
  WS01000070           JUNCTION        3.83          0.000        0.000
  WS01000323           JUNCTION        3.83          0.000        0.000
  WS01000533           JUNCTION        3.83          0.000        2.147
  WS01005172           JUNCTION        3.83          0.000        0.000
  WS01005181           JUNCTION        3.83          0.000        0.000
  WS01009841           JUNCTION        3.83          0.000        0.000
  WS02000078           JUNCTION        3.83          0.000        0.000
  WS02000112           JUNCTION        3.83          0.000        0.000
  WS02000136           JUNCTION        3.83          0.000        0.000
  WS02004053           JUNCTION        3.83          0.000        0.000
  WS02005192           JUNCTION        0.22          0.076        2.743
  WS02005193           JUNCTION        0.28          0.118        2.499
  WS02005196           JUNCTION        0.24          0.092        2.614
  WS02006109           JUNCTION        2.20          0.987        0.851
  WS02006110           JUNCTION        2.20          0.989        0.856
  WS02006111           JUNCTION        2.20          0.997        0.880
  WS02006112           JUNCTION        2.42          1.237        0.446
  WS02006113           JUNCTION        2.20          0.998        0.935
  WS02006115           JUNCTION        2.45          1.239        1.060
  WS02006116           JUNCTION        2.53          1.294        1.056
  WS02006183           JUNCTION        3.83          0.000        0.000
  WS02006228           JUNCTION        2.19          0.970        1.261
  WS02006229           JUNCTION        2.19          0.939        1.515
  WS02006231           JUNCTION        2.18          0.838        0.705
  WS02006232           JUNCTION        2.17          0.714        0.775
  WS02006234           JUNCTION        2.16          0.641        0.616
  WS02006235           JUNCTION        2.16          0.670        0.624
  WS02006238           JUNCTION        2.16          0.661        0.773
  WS02006239           JUNCTION        2.16          0.757        0.572
  WS02006242           JUNCTION        2.15          0.849        0.000
  WS02006240           JUNCTION        2.15          0.704        0.699
  WS02006243           JUNCTION        2.15          0.545        0.235
  WS02006245           JUNCTION        2.14          0.326        0.529
  WS02006247           JUNCTION        2.14          0.364        0.396
  WS02006249           JUNCTION        0.86          0.388        0.000
  WS02006251           JUNCTION        0.45          0.680        0.830
  WS02006253           JUNCTION        0.14          0.035        2.419
  WS02618401           JUNCTION        3.83          0.000        0.000
  WSA1649              JUNCTION        3.83          0.000        0.000
  
  
  *********************
  Node Flooding Summary
  *********************
  
  Flooding refers to all water that overflows a node, whether it ponds or not.
  --------------------------------------------------------------------------
                                                             Total   Maximum
                                 Maximum   Time of Max       Flood    Ponded
                        Hours       Rate    Occurrence      Volume     Depth
  Node                 Flooded       MLD   days hr:min    10^6 ltr    Meters
  --------------------------------------------------------------------------
  WS02006242              0.01     18.22      0  01:40       0.000     0.000
  WS02006249              0.01     10.33      0  01:42       0.000     0.000
  CC-storage              0.29     10.78      0  03:06       0.092     0.000
  
  
  **********************
  Storage Volume Summary
  **********************
  
  --------------------------------------------------------------------------------------------------
                         Average     Avg  Evap Exfil       Maximum     Max    Time of Max    Maximum
                          Volume    Pcnt  Pcnt  Pcnt        Volume    Pcnt     Occurrence    Outflow
  Storage Unit           1000 m3    Full  Loss  Loss       1000 m3    Full    days hr:min        MLD
  --------------------------------------------------------------------------------------------------
  CC-storage               0.069      44     0     0         0.159     100       0  02:20      34.56
  
  
  ***********************
  Outfall Loading Summary
  ***********************
  
  ---------------------------------------------------------------------------------------------------------------------------------
                         Flow       Avg       Max       Total         Total         Total         Total         Total         Total
                         Freq      Flow      Flow      Volume           COD         NH3-N            TN            TP            SS
  Outfall Node           Pcnt       MLD       MLD    10^6 ltr            kg            kg            kg            kg            kg
  ---------------------------------------------------------------------------------------------------------------------------------
  outfall-5             90.22     15.46     35.84       1.271       132.384         0.000         0.000         0.000         0.000
  outfall-14            90.27     10.10     17.17       0.860       121.079         0.000         0.000         0.000         0.000
  outfall-16             0.00      0.00      0.00       0.000         0.000         0.000         0.000         0.000         0.000
  ---------------------------------------------------------------------------------------------------------------------------------
  System                60.16     25.56     51.58       2.131       253.464         0.000         0.000         0.000         0.000
  
  
  ********************
  Link Flow Summary
  ********************
  
  -----------------------------------------------------------------------------
                                 Maximum  Time of Max   Maximum    Max/    Max/
                                  |Flow|   Occurrence   |Veloc|    Full    Full
  Link                 Type          MLD  days hr:min     m/sec    Flow   Depth
  -----------------------------------------------------------------------------
  WSL2038              CONDUIT      7.83     0  01:43      0.43    0.39    1.00
  WSL2039              CONDUIT     15.34     0  03:34      0.72    0.79    1.00
  WSL2041              CONDUIT     11.60     0  03:34      0.59    0.57    1.00
  WSL2294              CONDUIT     13.42     0  02:36      0.43    0.45    1.00
  WSL2295              CONDUIT     13.50     0  02:36      0.50    0.61    1.00
  WSL2296              CONDUIT     16.67     0  02:36      0.63    0.09    1.00
  WSL2297              CONDUIT     16.83     0  02:36      0.34    0.32    1.00
  WSL2298              CONDUIT     16.46     0  02:36      0.87    0.76    1.00
  WSL2301              CONDUIT     16.91     0  02:36      0.29    0.16    1.00
  WSL2302              CONDUIT     17.12     0  02:36      0.25    0.21    1.00
  WSL2441              CONDUIT     13.34     0  02:36      0.44    0.34    1.00
  WSL2442              CONDUIT     10.69     0  01:42      0.63    0.27    1.00
  WSL2443              CONDUIT     12.81     0  01:41      0.73    0.20    1.00
  WSL2444              CONDUIT     12.63     0  01:41      0.89    0.20    1.00
  WSL2446              CONDUIT     13.63     0  01:39      0.85    0.23    1.00
  WSL2447              CONDUIT     17.73     0  01:39      0.95    0.91    1.00
  WSL2448              CONDUIT     19.34     0  01:39      0.98    0.54    1.00
  WSL2449              CONDUIT     21.64     0  01:39      1.04    0.75    1.00
  WSL2450              CONDUIT     25.09     0  01:40      1.16    0.52    1.00
  WSL2451              CONDUIT     28.85     0  01:40      1.21    1.88    1.00
  WSL2452              CONDUIT     33.19     0  01:40      1.30    0.63    1.00
  WSL2454              CONDUIT     33.80     0  01:41      1.47    0.79    1.00
  WSL2478              CONDUIT     35.24     0  01:41      1.41    1.24    1.00
  WSL2479              CONDUIT     35.21     0  01:41      1.41    0.67    1.00
  WSL2480              CONDUIT     38.86     0  02:30      1.42    1.80    1.00
  WSL2482              CONDUIT     38.69     0  02:30      1.36    1.01    1.00
  WSL2484              CONDUIT     37.85     0  02:30      1.51    0.53    1.00
  WSL2493              CONDUIT     10.83     0  01:42      0.51    0.18    1.00
  8                    CONDUIT     35.84     0  02:30      6.88    0.47    0.48
  19                   CONDUIT      0.00     0  00:00      0.00    0.00    0.00
  17                   CONDUIT     17.17     0  02:36      5.71    0.22    0.32
  CC-Pump-1            PUMP        17.28     0  02:30              1.00
  CC-Pump-2            PUMP        17.28     0  02:30              1.00
  
  
  ***************************
  Flow Classification Summary
  ***************************
  
  -------------------------------------------------------------------------------------
                      Adjusted    ---------- Fraction of Time in Flow Class ---------- 
                       /Actual         Up    Down  Sub   Sup   Up    Down  Norm  Inlet 
  Conduit               Length    Dry  Dry   Dry   Crit  Crit  Crit  Crit  Ltd   Ctrl  
  -------------------------------------------------------------------------------------
  WSL2038                 1.00   0.00  0.00  0.00  1.00  0.00  0.00  0.00  0.01  0.00
  WSL2039                 1.00   0.00  0.00  0.00  1.00  0.00  0.00  0.00  0.00  0.00
  WSL2041                 1.00   0.00  0.00  0.00  1.00  0.00  0.00  0.00  0.32  0.00
  WSL2294                 1.00   0.00  0.00  0.00  1.00  0.00  0.00  0.00  0.00  0.00
  WSL2295                 1.00   0.00  0.00  0.00  1.00  0.00  0.00  0.00  0.00  0.00
  WSL2296                 1.00   0.00  0.00  0.00  1.00  0.00  0.00  0.00  0.17  0.00
  WSL2297                 1.00   0.00  0.00  0.00  1.00  0.00  0.00  0.00  0.00  0.00
  WSL2298                 1.00   0.00  0.00  0.00  0.98  0.02  0.00  0.00  0.00  0.00
  WSL2301                 1.00   0.00  0.00  0.00  1.00  0.00  0.00  0.00  0.04  0.00
  WSL2302                 1.00   0.00  0.00  0.00  1.00  0.00  0.00  0.00  0.01  0.00
  WSL2441                 1.00   0.00  0.00  0.00  1.00  0.00  0.00  0.00  0.00  0.00
  WSL2442                 1.00   0.00  0.00  0.00  1.00  0.00  0.00  0.00  0.17  0.00
  WSL2443                 1.00   0.00  0.00  0.00  1.00  0.00  0.00  0.00  0.31  0.00
  WSL2444                 1.00   0.00  0.00  0.00  0.94  0.06  0.00  0.00  0.24  0.00
  WSL2446                 1.00   0.00  0.00  0.00  0.93  0.07  0.00  0.00  0.03  0.00
  WSL2447                 1.00   0.00  0.00  0.00  1.00  0.00  0.00  0.00  0.00  0.00
  WSL2448                 1.00   0.00  0.00  0.00  1.00  0.00  0.00  0.00  0.00  0.00
  WSL2449                 1.00   0.00  0.00  0.00  1.00  0.00  0.00  0.00  0.02  0.00
  WSL2450                 1.00   0.00  0.00  0.00  1.00  0.00  0.00  0.00  0.41  0.00
  WSL2451                 1.00   0.00  0.00  0.00  1.00  0.00  0.00  0.00  0.00  0.00
  WSL2452                 1.00   0.00  0.00  0.00  1.00  0.00  0.00  0.00  0.39  0.00
  WSL2454                 1.00   0.00  0.00  0.00  1.00  0.00  0.00  0.00  0.01  0.00
  WSL2478                 1.00   0.00  0.00  0.00  1.00  0.00  0.00  0.00  0.00  0.00
  WSL2479                 1.00   0.00  0.00  0.00  1.00  0.00  0.00  0.00  0.40  0.00
  WSL2480                 1.00   0.00  0.00  0.00  1.00  0.00  0.00  0.00  0.00  0.00
  WSL2482                 1.00   0.00  0.00  0.00  1.00  0.00  0.00  0.00  0.39  0.00
  WSL2484                 1.00   0.00  0.00  0.00  1.00  0.00  0.00  0.00  0.38  0.00
  WSL2493                 1.00   0.00  0.00  0.00  1.00  0.00  0.00  0.00  0.05  0.00
  8                       1.00   0.10  0.00  0.00  0.00  0.90  0.00  0.00  0.11  0.00
  19                      1.00   1.00  0.00  0.00  0.00  0.00  0.00  0.00  0.00  0.00
  17                      1.00   0.10  0.00  0.00  0.00  0.90  0.00  0.00  0.04  0.00
  
  
  *************************
  Conduit Surcharge Summary
  *************************
  
  ----------------------------------------------------------------------------
                                                           Hours        Hours 
                         --------- Hours Full --------   Above Full   Capacity
  Conduit                Both Ends  Upstream  Dnstream   Normal Flow   Limited
  ----------------------------------------------------------------------------
  WSL2038                     0.22      0.22      0.24      0.01         0.01
  WSL2039                     0.28      0.28      0.36      0.01         0.01
  WSL2041                     0.24      0.24      0.28      0.01         0.01
  WSL2294                     2.20      2.20      2.20      0.01         0.01
  WSL2295                     2.20      2.20      2.20      0.01         0.03
  WSL2296                     2.20      2.20      2.74      0.01         0.01
  WSL2297                     2.42      2.42      2.45      0.01         0.01
  WSL2298                     2.20      2.20      2.20      0.01         0.04
  WSL2301                     2.45      2.45      2.53      0.01         0.01
  WSL2302                     2.53      2.53      2.60      0.01         0.01
  WSL2441                     2.19      2.19      2.20      0.01         0.01
  WSL2442                     2.20      2.20      2.21      0.01         0.01
  WSL2443                     2.18      2.18      2.20      0.01         0.01
  WSL2444                     2.17      2.17      2.18      0.01         0.01
  WSL2446                     2.16      2.16      2.17      0.01         0.01
  WSL2447                     2.16      2.16      2.16      0.01         0.01
  WSL2448                     2.16      2.16      2.16      0.01         0.01
  WSL2449                     2.15      2.15      2.16      0.01         0.01
  WSL2450                     2.15      2.15      2.15      0.01         0.01
  WSL2451                     2.15      2.15      2.15      0.06         0.01
  WSL2452                     2.15      2.15      2.15      0.01         0.01
  WSL2454                     2.14      2.14      2.15      0.01         0.01
  WSL2478                     2.14      2.14      2.14      0.03         0.01
  WSL2479                     1.27      1.27      2.14      0.01         0.01
  WSL2480                     0.85      0.86      1.27      0.55         0.48
  WSL2482                     0.45      0.45      0.86      0.07         0.09
  WSL2484                     0.14      0.14      0.45      0.01         0.01
  WSL2493                     2.19      2.19      2.19      0.01         0.01
  
  
  ***************
  Pumping Summary
  ***************
  
  ---------------------------------------------------------------------------------------------------------
                                                  Min       Avg       Max     Total     Power    % Time Off
                        Percent   Number of      Flow      Flow      Flow    Volume     Usage    Pump Curve
  Pump                 Utilized   Start-Ups       MLD       MLD       MLD  10^6 ltr     Kw-hr    Low   High
  ---------------------------------------------------------------------------------------------------------
  CC-Pump-1               34.75           3      0.00      9.06     17.28     0.483      4.27    0.0    0.0
  CC-Pump-2               34.75           3      0.00      9.06     17.28     0.483      4.27    0.0    0.0
  
  
  ***************************
  Link Pollutant Load Summary
  ***************************
  
  ------------------------------------------------------------------------------------------
                                 COD         NH3-N            TN            TP            SS
  Link                            kg            kg            kg            kg            kg
  ------------------------------------------------------------------------------------------
  WSL2038                     27.998         0.000         0.000         0.000         0.000
  WSL2039                     33.380         0.000         0.000         0.000         0.000
  WSL2041                     31.201         0.000         0.000         0.000         0.000
  WSL2294                    130.837         0.000         0.000         0.000         0.000
  WSL2295                    128.455         0.000         0.000         0.000         0.000
  WSL2296                    132.217         0.000         0.000         0.000         0.000
  WSL2297                    130.173         0.000         0.000         0.000         0.000
  WSL2298                    128.685         0.000         0.000         0.000         0.000
  WSL2301                    127.267         0.000         0.000         0.000         0.000
  WSL2302                    126.411         0.000         0.000         0.000         0.000
  WSL2441                    132.683         0.000         0.000         0.000         0.000
  WSL2442                     44.391         0.000         0.000         0.000         0.000
  WSL2443                     43.273         0.000         0.000         0.000         0.000
  WSL2444                     41.063         0.000         0.000         0.000         0.000
  WSL2446                     43.505         0.000         0.000         0.000         0.000
  WSL2447                     48.130         0.000         0.000         0.000         0.000
  WSL2448                     49.604         0.000         0.000         0.000         0.000
  WSL2449                     51.390         0.000         0.000         0.000         0.000
  WSL2450                     54.510         0.000         0.000         0.000         0.000
  WSL2451                     57.479         0.000         0.000         0.000         0.000
  WSL2452                     59.912         0.000         0.000         0.000         0.000
  WSL2454                     60.119         0.000         0.000         0.000         0.000
  WSL2478                     60.386         0.000         0.000         0.000         0.000
  WSL2479                     62.517         0.000         0.000         0.000         0.000
  WSL2480                    137.064         0.000         0.000         0.000         0.000
  WSL2482                    133.455         0.000         0.000         0.000         0.000
  WSL2484                    117.193         0.000         0.000         0.000         0.000
  WSL2493                     48.389         0.000         0.000         0.000         0.000
  8                          132.384         0.000         0.000         0.000         0.000
  19                           0.000         0.000         0.000         0.000         0.000
  17                         121.079         0.000         0.000         0.000         0.000
  CC-Pump-1                   41.205         0.000         0.000         0.000         0.000
  CC-Pump-2                   41.205         0.000         0.000         0.000         0.000
  

  Analysis begun on:  Sun Aug 18 10:00:00 2019
  Analysis ended on:  Sun Aug 18 10:00:00 2019
  Total elapsed time: < 1 sec