
  EPA STORM WATER MANAGEMENT MODEL - VERSION 5.1 (Build 5.2.0.dev5)
  --------------------------------------------------------------

  
  *********************************************************
  NOTE: The summary statistics displayed in this report are
  based on results found at every computational time step,  
  not just on results from each reporting time step.
  *********************************************************
  
  ****************
  Analysis Options
  ****************
  Flow Units ............... MLD
  Process Models:
    Rainfall/Runoff ........ YES
    RDII ................... NO
    Snowmelt ............... NO
    Groundwater ............ NO
    Flow Routing ........... YES
    Ponding Allowed ........ NO
    Water Quality .......... YES
  Infiltration Method ...... GREEN_AMPT
  Flow Routing Method ...... DYNWAVE
  Surcharge Method ......... EXTRAN
  Starting Date ............ 08/28/2015 08:00:00
  Ending Date .............. 08/28/2015 11:50:00
  Antecedent Dry Days ...... 4.0
  Report Time Step ......... 00:01:00
  Wet Time Step ............ 00:01:00
  Dry Time Step ............ 00:01:00
  Routing Time Step ........ 5.00 sec
  Variable Time Step ....... YES
  Maximum Trials ........... 8
  Number of Threads ........ 1
  Head Tolerance ........... 0.001500 m
  
  
  **************************        Volume         Depth
  Runoff Quantity Continuity     hectare-m            mm
  **************************     ---------       -------
  Total Precipitation ......         1.140        18.422
  Evaporation Loss .........         0.000         0.000
  Infiltration Loss ........         0.477         7.708
  Surface Runoff ...........         0.242         3.913
  Final Storage ............         0.421         6.802
  Continuity Error (%) .....        -0.007
  
  
  **************************           COD         NH3-N            TN            TP            SS
  Runoff Quality Continuity             kg            kg            kg            kg            kg
  **************************    ----------    ----------    ----------    ----------    ----------
  Initial Buildup ..........      2504.640         0.000         0.000         0.000         0.000
  Surface Buildup ..........        19.800         0.000         0.000         0.000         0.000
  Wet Deposition ...........         0.000         0.000         0.000         0.000         0.000
  Sweeping Removal .........         0.000         0.000         0.000         0.000         0.000
  Infiltration Loss ........        84.781         0.000         0.000         0.000         0.000
  BMP Removal ..............         0.000         0.000         0.000         0.000         0.000
  Surface Runoff ...........       394.383         0.000         0.000         0.000         0.000
  Remaining Buildup ........      2043.366         0.000         0.000         0.000         0.000
  Continuity Error (%) .....         0.076         0.000         0.000         0.000         0.000
  
  
  **************************        Volume        Volume
  Flow Routing Continuity        hectare-m      10^6 ltr
  **************************     ---------     ---------
  Dry Weather Inflow .......         0.000         0.000
  Wet Weather Inflow .......         0.241         2.415
  Groundwater Inflow .......         0.000         0.000
  RDII Inflow ..............         0.000         0.000
  External Inflow ..........         0.082         0.822
  External Outflow .........         0.279         2.791
  Flooding Loss ............         0.016         0.157
  Evaporation Loss .........         0.000         0.000
  Exfiltration Loss ........         0.000         0.000
  Initial Stored Volume ....         0.000         0.000
  Final Stored Volume ......         0.046         0.465
  Continuity Error (%) .....        -5.442
  
  
  **************************           COD         NH3-N            TN            TP            SS
  Quality Routing Continuity            kg            kg            kg            kg            kg
  **************************    ----------    ----------    ----------    ----------    ----------
  Dry Weather Inflow .......         0.000         0.000         0.000         0.000         0.000
  Wet Weather Inflow .......       393.381         0.000         0.000         0.000         0.000
  Groundwater Inflow .......         0.000         0.000         0.000         0.000         0.000
  RDII Inflow ..............         0.000         0.000         0.000         0.000         0.000
  External Inflow ..........       137.264         0.000         0.000         0.000         0.000
  External Outflow .........       393.276         0.000         0.000         0.000         0.000
  Flooding Loss ............        34.582         0.000         0.000         0.000         0.000
  Exfiltration Loss ........         0.000         0.000         0.000         0.000         0.000
  Mass Reacted .............         0.000         0.000         0.000         0.000         0.000
  Initial Stored Mass ......         0.000         0.000         0.000         0.000         0.000
  Final Stored Mass ........        69.952         0.000         0.000         0.000         0.000
  Continuity Error (%) .....         6.188         0.000         0.000         0.000         0.000
  
  
  *************************
  Highest Continuity Errors
  *************************
  Node WS02006230 (5.97%)
  Node WS02006242 (3.84%)
  Node WS02006229 (3.63%)
  Node WS02006240 (3.62%)
  Node WS02006239 (3.40%)
  
  
  ***************************
  Time-Step Critical Elements
  ***************************
  Link 8 (82.40%)
  Link 17 (8.31%)
  Link WSL2448 (7.94%)
  
  
  ********************************
  Highest Flow Instability Indexes
  ********************************
  Link WSL2301 (3)
  Link WSL2302 (3)
  Link WSL2297 (2)
  Link WSL2296 (2)
  Link WSL2493 (2)
  
  
  *************************
  Routing Time Step Summary
  *************************
  Minimum Time Step           :     0.47 sec
  Average Time Step           :     0.95 sec
  Maximum Time Step           :     5.00 sec
  Percent in Steady State     :    -0.00
  Average Iterations per Step :     2.17
  Percent Not Converging      :     1.92
  
  
  ***************************
  Subcatchment Runoff Summary
  ***************************
  
  ------------------------------------------------------------------------------------------------------------------------------
                            Total      Total      Total      Total     Imperv       Perv      Total       Total     Peak  Runoff
                           Precip      Runon       Evap      Infil     Runoff     Runoff     Runoff      Runoff   Runoff   Coeff
  Subcatchment                 mm         mm         mm         mm         mm         mm         mm    10^6 ltr      MLD
  ------------------------------------------------------------------------------------------------------------------------------
  1                         18.42      19.69       0.00       9.01       8.99       7.90      16.89        0.20     4.78   0.443
  2                         18.42       0.00       0.00       7.35       4.36       1.55       5.92        0.20     5.35   0.321
  3                         18.42       0.00       0.00       7.39       4.30       1.31       5.60        0.29     7.52   0.304
  35                        18.42       0.00       0.00       7.34       4.38       1.62       6.00        0.18     4.90   0.326
  36                        18.42      11.60       0.00       8.70       6.84       3.04       9.88        0.58    13.80   0.329
  40                        18.42       3.15       0.00       7.76       5.05       1.99       7.04        0.28     7.11   0.326
  41                        18.42       0.00       0.00       7.30       4.43       1.94       6.37        0.12     3.40   0.346
  42                        18.42       0.00       0.00       7.31       4.41       1.82       6.23        0.14     3.88   0.338
  43                        18.42       0.00       0.00       7.04       4.54       3.51       8.05        0.03     0.86   0.437
  44                        18.42     164.40       0.00      14.13      44.53      91.84     136.37        0.50    10.74   0.746
  45                        18.42       0.00       0.00       7.22       4.49       2.47       6.95        0.07     2.03   0.378
  46                        18.42       9.82       0.00       8.38       6.66       4.09      10.75        0.23     5.74   0.380
  47                        18.42       0.00       0.00       7.23       4.48       2.40       6.88        0.08     2.16   0.374
  48                        18.42       4.82       0.00       7.83       5.56       3.26       8.82        0.14     3.68   0.380
  55                        18.42       7.22       0.00       7.96       6.19       4.86      11.06        0.09     2.44   0.431
  56                        18.42      10.79       0.00       8.46       6.88       4.32      11.20        0.24     5.92   0.383
  57                        18.42       0.00       0.00       7.39       4.30       1.32       5.62        0.28     7.40   0.305
  59                        18.42       0.00       0.00       7.19       4.50       2.65       7.16        0.06     1.72   0.388
  60                        18.42      15.66       0.00       8.58       8.25       9.01      17.26        0.09     2.30   0.506
  61                        18.42       0.00       0.00       7.46       4.00       0.74       4.74        0.85    21.27   0.258
  64                        18.42       0.00       0.00       7.24       4.47       2.33       6.81        0.08     2.30   0.370
  
  
  ****************************
  Subcatchment Washoff Summary
  ****************************
  
  ------------------------------------------------------------------------------------------
                                 COD         NH3-N            TN            TP            SS
  Subcatchment                    kg            kg            kg            kg            kg
  ------------------------------------------------------------------------------------------
  1                           31.461         0.000         0.000         0.000         0.000
  2                            0.000         0.000         0.000         0.000         0.000
  3                            0.000         0.000         0.000         0.000         0.000
  35                          32.307         0.000         0.000         0.000         0.000
  36                         183.449         0.000         0.000         0.000         0.000
  40                          60.595         0.000         0.000         0.000         0.000
  41                          22.948         0.000         0.000         0.000         0.000
  42                          25.968         0.000         0.000         0.000         0.000
  43                           6.357         0.000         0.000         0.000         0.000
  44                         160.466         0.000         0.000         0.000         0.000
  45                          14.165         0.000         0.000         0.000         0.000
  46                          72.229         0.000         0.000         0.000         0.000
  47                          14.994         0.000         0.000         0.000         0.000
  48                          36.210         0.000         0.000         0.000         0.000
  55                          27.156         0.000         0.000         0.000         0.000
  56                          77.355         0.000         0.000         0.000         0.000
  57                          47.555         0.000         0.000         0.000         0.000
  59                          12.132         0.000         0.000         0.000         0.000
  60                          28.926         0.000         0.000         0.000         0.000
  61                         127.744         0.000         0.000         0.000         0.000
  64                          15.910         0.000         0.000         0.000         0.000
  ------------------------------------------------------------------------------------------
  System                     997.928         0.000         0.000         0.000         0.000
  
  
  ******************
  Node Depth Summary
  ******************
  
  ---------------------------------------------------------------------------------
                                 Average  Maximum  Maximum  Time of Max    Reported
                                   Depth    Depth      HGL   Occurrence   Max Depth
  Node                 Type       Meters   Meters   Meters  days hr:min      Meters
  ---------------------------------------------------------------------------------
  WS01000070           JUNCTION     0.00     0.00     0.00     0  00:00        0.00
  WS01000323           JUNCTION     0.00     0.00     0.00     0  00:00        0.00
  WS01000533           JUNCTION     0.00     0.00     6.86     0  00:00        0.00
  WS01005172           JUNCTION     0.00     0.00     0.00     0  00:00        0.00
  WS01005181           JUNCTION     0.00     0.00     0.00     0  00:00        0.00
  WS01009841           JUNCTION     0.00     0.00     0.00     0  00:00        0.00
  WS02000078           JUNCTION     0.00     0.00     0.00     0  00:00        0.00
  WS02000112           JUNCTION     0.00     0.00     0.00     0  00:00        0.00
  WS02000136           JUNCTION     0.00     0.00     0.00     0  00:00        0.00
  WS02004053           JUNCTION     0.00     0.00     0.00     0  00:00        0.00
  WS02004401           JUNCTION     2.17     2.34     8.34     0  03:23        2.34
  WS02005192           JUNCTION     0.46     1.10     8.97     0  02:38        0.69
  WS02005193           JUNCTION     0.50     1.01     8.83     0  02:38        0.74
  WS02005196           JUNCTION     0.48     1.07     8.92     0  02:38        0.71
  WS02006109           JUNCTION     1.58     1.80     8.42     0  01:42        1.75
  WS02006110           JUNCTION     1.60     1.80     8.40     0  01:42        1.76
  WS02006111           JUNCTION     1.61     1.80     8.38     0  01:42        1.77
  WS02006112           JUNCTION     2.05     2.24     8.36     0  01:42        2.22
  WS02006113           JUNCTION     1.60     1.81     8.40     0  01:42        1.77
  WS02006115           JUNCTION     2.07     2.24     8.34     0  02:38        2.24
  WS02006116           JUNCTION     2.13     2.30     8.34     0  03:27        2.30
  WS02006183           JUNCTION     0.00     0.00     0.00     0  00:00        0.00
  WS02006228           JUNCTION     1.55     1.79     8.44     0  01:42        1.73
  WS02006229           JUNCTION     1.51     1.75     8.44     0  01:42        1.70
  WS02006230           JUNCTION     1.46     1.71     8.46     0  01:42        1.65
  WS02006231           JUNCTION     1.31     1.55     8.45     0  01:42        1.49
  WS02006232           JUNCTION     1.19     1.45     8.48     0  01:42        1.36
  WS02006234           JUNCTION     1.07     1.34     8.50     0  01:42        1.22
  WS02006235           JUNCTION     1.07     1.35     8.52     0  01:42        1.21
  WS02006238           JUNCTION     1.06     1.33     8.51     0  01:42        1.20
  WS02006239           JUNCTION     1.03     1.29     8.50     0  01:42        1.18
  WS02006242           JUNCTION     0.95     1.26     8.56     0  01:42        1.09
  WS02006240           JUNCTION     0.95     1.23     8.52     0  01:41        1.10
  WS02006243           JUNCTION     0.83     1.26     8.68     0  01:41        0.97
  WS02006245           JUNCTION     0.77     1.08     8.57     0  01:42        0.91
  WS02006247           JUNCTION     0.75     1.06     8.57     0  01:42        0.89
  WS02006248           JUNCTION     0.68     0.81     8.40     0  03:20        0.81
  WS02006249           JUNCTION     0.68     1.09     8.69     0  01:42        0.83
  WS02006251           JUNCTION     0.63     1.06     8.73     0  03:30        0.84
  WS02006253           JUNCTION     0.52     0.76     8.56     0  03:19        0.75
  WS02618401           JUNCTION     0.00     0.00     0.00     0  00:00        0.00
  WSA1649              JUNCTION     0.00     0.00     0.00     0  00:00        0.00
  outfall-5            OUTFALL      0.12     0.21     7.88     0  03:20        0.21
  outfall-14           OUTFALL      0.10     0.14     7.80     0  03:23        0.14
  outfall-16           OUTFALL      0.00     0.00     8.39     0  00:00        0.00
  CC-storage           STORAGE      2.32     5.63     8.81     0  02:19        5.63
  
  
  *******************
  Node Inflow Summary
  *******************
  
  -------------------------------------------------------------------------------------------------
                                  Maximum  Maximum                  Lateral       Total        Flow
                                  Lateral    Total  Time of Max      Inflow      Inflow     Balance
                                   Inflow   Inflow   Occurrence      Volume      Volume       Error
  Node                 Type           MLD      MLD  days hr:min    10^6 ltr    10^6 ltr     Percent
  -------------------------------------------------------------------------------------------------
  WS01000070           JUNCTION      0.00     0.00     0  00:00           0           0       0.000 ltr
  WS01000323           JUNCTION      0.00     0.00     0  00:00           0           0       0.000 ltr
  WS01000533           JUNCTION      0.00     0.00     0  00:00           0           0       0.000 ltr
  WS01005172           JUNCTION      0.00     0.00     0  00:00           0           0       0.000 ltr
  WS01005181           JUNCTION      0.00     0.00     0  00:00           0           0       0.000 ltr
  WS01009841           JUNCTION      0.00     0.00     0  00:00           0           0       0.000 ltr
  WS02000078           JUNCTION      0.00     0.00     0  00:00           0           0       0.000 ltr
  WS02000112           JUNCTION      0.00     0.00     0  00:00           0           0       0.000 ltr
  WS02000136           JUNCTION      0.00     0.00     0  00:00           0           0       0.000 ltr
  WS02004053           JUNCTION      0.00     0.00     0  00:00           0           0       0.000 ltr
  WS02004401           JUNCTION      0.05    19.18     0  03:23      0.0086        1.15       2.543
  WS02005192           JUNCTION      7.49     7.49     0  03:01       0.297       0.301       0.910
  WS02005193           JUNCTION      0.09    11.47     0  01:44       0.014       0.332       2.344
  WS02005196           JUNCTION      0.12     7.57     0  03:01      0.0183        0.32       2.210
  WS02006109           JUNCTION      0.08    15.93     0  03:26      0.0129       0.901       2.741
  WS02006110           JUNCTION      0.08    16.01     0  03:26      0.0126       0.892       2.810
  WS02006111           JUNCTION      0.24    18.71     0  03:23      0.0352        1.19       1.744
  WS02006112           JUNCTION      0.18    18.86     0  03:23      0.0263         1.2       2.770
  WS02006113           JUNCTION      7.66    18.52     0  03:23       0.311        1.18       2.032
  WS02006115           JUNCTION      0.08    18.93     0  03:23      0.0129        1.18       3.241
  WS02006116           JUNCTION      0.24    19.12     0  03:23      0.0347        1.18       2.931
  WS02006183           JUNCTION      0.00     0.00     0  00:00           0           0       0.000 ltr
  WS02006228           JUNCTION     10.89    15.86     0  03:26        0.53       0.921       1.952
  WS02006229           JUNCTION      0.13    11.50     0  01:43      0.0193       0.424       3.769
  WS02006230           JUNCTION      0.07    13.81     0  01:41      0.0111       0.433       6.351
  WS02006231           JUNCTION      0.13    13.65     0  01:41      0.0197        0.44       3.428
  WS02006232           JUNCTION      5.43    15.86     0  01:39       0.212       0.539       2.863
  WS02006234           JUNCTION      0.14    19.33     0  01:39      0.0208       0.448       3.200
  WS02006235           JUNCTION      0.14    20.83     0  01:39      0.0215       0.445       1.784
  WS02006238           JUNCTION      0.15    22.97     0  01:39      0.0226       0.445       2.257
  WS02006239           JUNCTION      0.11    26.46     0  01:40      0.0167       0.448       3.518
  WS02006242           JUNCTION      0.08    34.10     0  01:41      0.0124       0.469       3.992
  WS02006240           JUNCTION      0.06    30.08     0  01:40     0.00952       0.454       3.755
  WS02006243           JUNCTION      0.17    34.29     0  01:41      0.0259       0.483       3.489
  WS02006245           JUNCTION      0.07    34.94     0  01:41      0.0109       0.479       2.670
  WS02006247           JUNCTION      4.91    35.46     0  01:41       0.228        0.62       1.809
  WS02006248           JUNCTION      0.12    40.67     0  03:20      0.0185        1.92       0.557
  WS02006249           JUNCTION      0.19    39.64     0  02:36      0.0275        1.62       0.906
  WS02006251           JUNCTION      2.50    39.48     0  02:36       0.101         1.6       0.928
  WS02006253           JUNCTION      0.11    38.40     0  02:36      0.0166        1.52       0.505
  WS02618401           JUNCTION      0.00     0.00     0  00:00           0           0       0.000 ltr
  WSA1649              JUNCTION      0.00     0.00     0  00:00           0           0       0.000 ltr
  outfall-5            OUTFALL       0.00    40.71     0  03:20           0        1.67       0.000
  outfall-14           OUTFALL       0.00    19.18     0  03:23           0        1.12       0.000
  outfall-16           OUTFALL       0.00     0.00     0  00:00           0           0       0.000 ltr
  CC-storage           STORAGE      22.73    22.73     0  03:01        1.13        1.13     -15.626
  
  
  **********************
  Node Surcharge Summary
  **********************
  
  Surcharging occurs when water rises above the top of the highest conduit.
  ---------------------------------------------------------------------
                                               Max. Height   Min. Depth
                                   Hours       Above Crown    Below Rim
  Node                 Type      Surcharged         Meters       Meters
  ---------------------------------------------------------------------
  WS01000070           JUNCTION        3.83          0.000        0.000
  WS01000323           JUNCTION        3.83          0.000        0.000
  WS01000533           JUNCTION        3.83          0.000        2.147
  WS01005172           JUNCTION        3.83          0.000        0.000
  WS01005181           JUNCTION        3.83          0.000        0.000
  WS01009841           JUNCTION        3.83          0.000        0.000
  WS02000078           JUNCTION        3.83          0.000        0.000
  WS02000112           JUNCTION        3.83          0.000        0.000
  WS02000136           JUNCTION        3.83          0.000        0.000
  WS02004053           JUNCTION        3.83          0.000        0.000
  WS02005192           JUNCTION        0.32          0.496        2.323
  WS02005193           JUNCTION        0.45          0.410        2.207
  WS02005196           JUNCTION        0.39          0.470        2.236
  WS02006109           JUNCTION        2.19          0.996        0.842
  WS02006110           JUNCTION        2.19          1.003        0.842
  WS02006111           JUNCTION        2.19          1.003        0.874
  WS02006112           JUNCTION        2.42          1.239        0.444
  WS02006113           JUNCTION        2.19          1.010        0.923
  WS02006115           JUNCTION        2.44          1.245        1.054
  WS02006116           JUNCTION        2.52          1.304        1.046
  WS02006183           JUNCTION        3.83          0.000        0.000
  WS02006228           JUNCTION        2.19          0.986        1.245
  WS02006229           JUNCTION        2.19          0.951        1.503
  WS02006231           JUNCTION        2.18          0.854        0.689
  WS02006232           JUNCTION        2.16          0.746        0.743
  WS02006234           JUNCTION        2.16          0.645        0.612
  WS02006235           JUNCTION        2.16          0.648        0.646
  WS02006238           JUNCTION        2.16          0.634        0.800
  WS02006239           JUNCTION        2.15          0.594        0.735
  WS02006242           JUNCTION        2.15          0.563        0.286
  WS02006240           JUNCTION        2.15          0.533        0.870
  WS02006243           JUNCTION        2.14          0.563        0.217
  WS02006245           JUNCTION        2.14          0.385        0.470
  WS02006247           JUNCTION        2.13          0.358        0.402
  WS02006249           JUNCTION        1.49          0.388        0.000
  WS02006251           JUNCTION        0.59          0.364        1.146
  WS02006253           JUNCTION        0.26          0.056        2.398
  WS02618401           JUNCTION        3.83          0.000        0.000
  WSA1649              JUNCTION        3.83          0.000        0.000
  
  
  *********************
  Node Flooding Summary
  *********************
  
  Flooding refers to all water that overflows a node, whether it ponds or not.
  --------------------------------------------------------------------------
                                                             Total   Maximum
                                 Maximum   Time of Max       Flood    Ponded
                        Hours       Rate    Occurrence      Volume     Depth
  Node                 Flooded       MLD   days hr:min    10^6 ltr    Meters
  --------------------------------------------------------------------------
  WS02006249              0.01      9.59      0  01:42       0.000     0.000
  CC-storage              0.27     22.73      0  03:01       0.157     0.000
  
  
  **********************
  Storage Volume Summary
  **********************
  
  --------------------------------------------------------------------------------------------------
                         Average     Avg  Evap Exfil       Maximum     Max    Time of Max    Maximum
                          Volume    Pcnt  Pcnt  Pcnt        Volume    Pcnt     Occurrence    Outflow
  Storage Unit           1000 m3    Full  Loss  Loss       1000 m3    Full    days hr:min        MLD
  --------------------------------------------------------------------------------------------------
  CC-storage               0.065      41     0     0         0.159     100       0  02:19      34.56
  
  
  ***********************
  Outfall Loading Summary
  ***********************
  
  ---------------------------------------------------------------------------------------------------------------------------------
                         Flow       Avg       Max       Total         Total         Total         Total         Total         Total
                         Freq      Flow      Flow      Volume           COD         NH3-N            TN            TP            SS
  Outfall Node           Pcnt       MLD       MLD    10^6 ltr            kg            kg            kg            kg            kg
  ---------------------------------------------------------------------------------------------------------------------------------
  outfall-5             90.78     20.22     40.71       1.675       210.985         0.000         0.000         0.000         0.000
  outfall-14            90.79     13.21     19.18       1.116       182.309         0.000         0.000         0.000         0.000
  outfall-16             0.00      0.00      0.00       0.000         0.000         0.000         0.000         0.000         0.000
  ---------------------------------------------------------------------------------------------------------------------------------
  System                60.52     33.43     58.70       2.791       393.294         0.000         0.000         0.000         0.000
  
  
  ********************
  Link Flow Summary
  ********************
  
  -----------------------------------------------------------------------------
                                 Maximum  Time of Max   Maximum    Max/    Max/
                                  |Flow|   Occurrence   |Veloc|    Full    Full
  Link                 Type          MLD  days hr:min     m/sec    Flow   Depth
  -----------------------------------------------------------------------------
  WSL2038              CONDUIT      7.46     0  03:01      0.42    0.37    1.00
  WSL2039              CONDUIT     12.29     0  03:26      0.62    0.63    1.00
  WSL2041              CONDUIT      9.80     0  03:27      0.45    0.48    1.00
  WSL2294              CONDUIT     15.93     0  03:26      0.43    0.54    1.00
  WSL2295              CONDUIT     16.01     0  03:26      0.50    0.72    1.00
  WSL2296              CONDUIT     18.71     0  03:23      0.63    0.11    1.00
  WSL2297              CONDUIT     18.86     0  03:23      0.34    0.36    1.00
  WSL2298              CONDUIT     18.52     0  03:23      0.87    0.85    1.00
  WSL2301              CONDUIT     18.93     0  03:23      0.29    0.17    1.00
  WSL2302              CONDUIT     19.12     0  03:23      0.28    0.23    1.00
  WSL2441              CONDUIT     15.86     0  03:26      0.44    0.41    1.00
  WSL2442              CONDUIT     11.37     0  01:43      0.63    0.29    1.00
  WSL2443              CONDUIT     13.74     0  01:41      0.73    0.21    1.00
  WSL2444              CONDUIT     13.51     0  01:41      0.89    0.21    1.00
  WSL2446              CONDUIT     14.92     0  01:39      0.85    0.26    1.00
  WSL2447              CONDUIT     19.20     0  01:39      1.04    0.99    1.00
  WSL2448              CONDUIT     20.69     0  01:39      1.04    0.58    1.00
  WSL2449              CONDUIT     22.81     0  01:39      1.08    0.80    1.00
  WSL2450              CONDUIT     26.35     0  01:40      1.19    0.55    1.00
  WSL2451              CONDUIT     30.01     0  01:40      1.22    1.96    1.00
  WSL2452              CONDUIT     34.02     0  01:41      1.31    0.65    1.00
  WSL2454              CONDUIT     34.11     0  01:41      1.47    0.80    1.00
  WSL2478              CONDUIT     34.87     0  01:41      1.41    1.23    1.00
  WSL2479              CONDUIT     34.75     0  01:41      1.41    0.66    1.00
  WSL2480              CONDUIT     39.64     0  02:36      1.42    1.83    1.00
  WSL2482              CONDUIT     39.48     0  02:36      1.36    1.03    1.00
  WSL2484              CONDUIT     38.39     0  02:36      1.51    0.54    1.00
  WSL2493              CONDUIT     11.51     0  01:43      0.51    0.19    1.00
  8                    CONDUIT     40.71     0  03:20      7.10    0.54    0.52
  19                   CONDUIT      0.00     0  00:00      0.00    0.00    0.00
  17                   CONDUIT     19.18     0  03:23      5.89    0.25    0.34
  CC-Pump-1            PUMP        17.28     0  02:30              1.00
  CC-Pump-2            PUMP        17.28     0  02:30              1.00
  
  
  ***************************
  Flow Classification Summary
  ***************************
  
  -------------------------------------------------------------------------------------
                      Adjusted    ---------- Fraction of Time in Flow Class ---------- 
                       /Actual         Up    Down  Sub   Sup   Up    Down  Norm  Inlet 
  Conduit               Length    Dry  Dry   Dry   Crit  Crit  Crit  Crit  Ltd   Ctrl  
  -------------------------------------------------------------------------------------
  WSL2038                 1.00   0.00  0.00  0.00  1.00  0.00  0.00  0.00  0.01  0.00
  WSL2039                 1.00   0.00  0.00  0.00  1.00  0.00  0.00  0.00  0.00  0.00
  WSL2041                 1.00   0.00  0.00  0.00  1.00  0.00  0.00  0.00  0.32  0.00
  WSL2294                 1.00   0.00  0.00  0.00  1.00  0.00  0.00  0.00  0.00  0.00
  WSL2295                 1.00   0.00  0.00  0.00  1.00  0.00  0.00  0.00  0.00  0.00
  WSL2296                 1.00   0.00  0.00  0.00  1.00  0.00  0.00  0.00  0.17  0.00
  WSL2297                 1.00   0.00  0.00  0.00  1.00  0.00  0.00  0.00  0.00  0.00
  WSL2298                 1.00   0.00  0.00  0.00  0.98  0.02  0.00  0.00  0.00  0.00
  WSL2301                 1.00   0.00  0.00  0.00  1.00  0.00  0.00  0.00  0.04  0.00
  WSL2302                 1.00   0.00  0.00  0.00  1.00  0.00  0.00  0.00  0.01  0.00
  WSL2441                 1.00   0.00  0.00  0.00  1.00  0.00  0.00  0.00  0.00  0.00
  WSL2442                 1.00   0.00  0.00  0.00  1.00  0.00  0.00  0.00  0.17  0.00
  WSL2443                 1.00   0.00  0.00  0.00  1.00  0.00  0.00  0.00  0.31  0.00
  WSL2444                 1.00   0.00  0.00  0.00  0.94  0.06  0.00  0.00  0.24  0.00
  WSL2446                 1.00   0.00  0.00  0.00  0.93  0.07  0.00  0.00  0.03  0.00
  WSL2447                 1.00   0.00  0.00  0.00  1.00  0.00  0.00  0.00  0.00  0.00
  WSL2448                 1.00   0.00  0.00  0.00  1.00  0.00  0.00  0.00  0.00  0.00
  WSL2449                 1.00   0.00  0.00  0.00  1.00  0.00  0.00  0.00  0.02  0.00
  WSL2450                 1.00   0.00  0.00  0.00  1.00  0.00  0.00  0.00  0.41  0.00
  WSL2451                 1.00   0.00  0.00  0.00  1.00  0.00  0.00  0.00  0.00  0.00
  WSL2452                 1.00   0.00  0.00  0.00  1.00  0.00  0.00  0.00  0.39  0.00
  WSL2454                 1.00   0.00  0.00  0.00  1.00  0.00  0.00  0.00  0.01  0.00
  WSL2478                 1.00   0.00  0.00  0.00  1.00  0.00  0.00  0.00  0.00  0.00
  WSL2479                 1.00   0.00  0.00  0.00  1.00  0.00  0.00  0.00  0.40  0.00
  WSL2480                 1.00   0.00  0.00  0.00  1.00  0.00  0.00  0.00  0.00  0.00
  WSL2482                 1.00   0.00  0.00  0.00  1.00  0.00  0.00  0.00  0.39  0.00
  WSL2484                 1.00   0.00  0.00  0.00  1.00  0.00  0.00  0.00  0.38  0.00
  WSL2493                 1.00   0.00  0.00  0.00  1.00  0.00  0.00  0.00  0.05  0.00
  8                       1.00   0.09  0.00  0.00  0.00  0.91  0.00  0.00  0.12  0.00
  19                      1.00   1.00  0.00  0.00  0.00  0.00  0.00  0.00  0.00  0.00
  17                      1.00   0.09  0.00  0.00  0.00  0.91  0.00  0.00  0.03  0.00
  
  
  *************************
  Conduit Surcharge Summary
  *************************
  
  ----------------------------------------------------------------------------
                                                           Hours        Hours 
                         --------- Hours Full --------   Above Full   Capacity
  Conduit                Both Ends  Upstream  Dnstream   Normal Flow   Limited
  ----------------------------------------------------------------------------
  WSL2038                     0.32      0.32      0.39      0.01         0.01
  WSL2039                     0.45      0.45      0.50      0.01         0.01
  WSL2041                     0.39      0.39      0.45      0.01         0.01
  WSL2294                     2.19      2.19      2.19      0.01         0.01
  WSL2295                     2.19      2.19      2.19      0.01         0.03
  WSL2296                     2.19      2.19      2.74      0.01         0.01
  WSL2297                     2.42      2.42      2.44      0.01         0.01
  WSL2298                     2.19      2.19      2.19      0.01         0.04
  WSL2301                     2.44      2.44      2.52      0.01         0.01
  WSL2302                     2.52      2.52      2.60      0.01         0.01
  WSL2441                     2.19      2.19      2.19      0.01         0.01
  WSL2442                     2.19      2.19      2.20      0.01         0.01
  WSL2443                     2.18      2.18      2.19      0.01         0.01
  WSL2444                     2.16      2.16      2.18      0.01         0.01
  WSL2446                     2.16      2.16      2.16      0.01         0.01
  WSL2447                     2.16      2.16      2.16      0.01         0.01
  WSL2448                     2.16      2.16      2.16      0.01         0.01
  WSL2449                     2.15      2.15      2.16      0.01         0.01
  WSL2450                     2.15      2.15      2.15      0.01         0.01
  WSL2451                     2.15      2.15      2.15      0.06         0.01
  WSL2452                     2.14      2.14      2.15      0.01         0.01
  WSL2454                     2.14      2.14      2.14      0.01         0.01
  WSL2478                     2.13      2.13      2.14      0.04         0.01
  WSL2479                     1.54      1.54      2.13      0.01         0.01
  WSL2480                     1.49      1.49      1.54      0.65         0.61
  WSL2482                     0.59      0.59      1.49      0.18         0.17
  WSL2484                     0.26      0.26      0.59      0.01         0.01
  WSL2493                     2.19      2.19      2.19      0.01         0.01
  
  
  ***************
  Pumping Summary
  ***************
  
  ---------------------------------------------------------------------------------------------------------
                                                  Min       Avg       Max     Total     Power    % Time Off
                        Percent   Number of      Flow      Flow      Flow    Volume     Usage    Pump Curve
  Pump                 Utilized   Start-Ups       MLD       MLD       MLD  10^6 ltr     Kw-hr    Low   High
  ---------------------------------------------------------------------------------------------------------
  CC-Pump-1               39.10           3      0.00      9.76     17.28     0.591      5.49    0.0    0.0
  CC-Pump-2               39.10           3      0.00      9.76     17.28     0.591      5.49    0.0    0.0
  
  
  ***************************
  Link Pollutant Load Summary
  ***************************
  
  ------------------------------------------------------------------------------------------
                                 COD         NH3-N            TN            TP            SS
  Link                            kg            kg            kg            kg            kg
  ------------------------------------------------------------------------------------------
  WSL2038                     51.188         0.000         0.000         0.000         0.000
  WSL2039                     56.088         0.000         0.000         0.000         0.000
  WSL2041                     53.839         0.000         0.000         0.000         0.000
  WSL2294                    197.654         0.000         0.000         0.000         0.000
  WSL2295                    194.010         0.000         0.000         0.000         0.000
  WSL2296                    196.281         0.000         0.000         0.000         0.000
  WSL2297                    193.158         0.000         0.000         0.000         0.000
  WSL2298                    193.345         0.000         0.000         0.000         0.000
  WSL2301                    189.603         0.000         0.000         0.000         0.000
  WSL2302                    187.666         0.000         0.000         0.000         0.000
  WSL2441                    200.964         0.000         0.000         0.000         0.000
  WSL2442                     43.408         0.000         0.000         0.000         0.000
  WSL2443                     41.586         0.000         0.000         0.000         0.000
  WSL2444                     38.776         0.000         0.000         0.000         0.000
  WSL2446                     41.221         0.000         0.000         0.000         0.000
  WSL2447                     46.082         0.000         0.000         0.000         0.000
  WSL2448                     47.549         0.000         0.000         0.000         0.000
  WSL2449                     49.662         0.000         0.000         0.000         0.000
  WSL2450                     53.409         0.000         0.000         0.000         0.000
  WSL2451                     57.351         0.000         0.000         0.000         0.000
  WSL2452                     60.843         0.000         0.000         0.000         0.000
  WSL2454                     62.334         0.000         0.000         0.000         0.000
  WSL2478                     64.033         0.000         0.000         0.000         0.000
  WSL2479                     72.810         0.000         0.000         0.000         0.000
  WSL2480                    201.452         0.000         0.000         0.000         0.000
  WSL2482                    197.882         0.000         0.000         0.000         0.000
  WSL2484                    168.943         0.000         0.000         0.000         0.000
  WSL2493                     48.833         0.000         0.000         0.000         0.000
  8                          210.985         0.000         0.000         0.000         0.000
  19                           0.000         0.000         0.000         0.000         0.000
  17                         182.309         0.000         0.000         0.000         0.000
  CC-Pump-1                   55.520         0.000         0.000         0.000         0.000
  CC-Pump-2                   55.520         0.000         0.000         0.000         0.000
  

  Analysis begun on:  Sun Aug 18 10:00:13 2019
  Analysis ended on:  Sun Aug 18 10:00:14 2019
  Total elapsed time: 00:00:01