
  EPA STORM WATER MANAGEMENT MODEL - VERSION 5.1 (Build 5.2.0.dev5)
  --------------------------------------------------------------

  
  *********************************************************
  NOTE: The summary statistics displayed in this report are
  based on results found at every computational time step,  
  not just on results from each reporting time step.
  *********************************************************
  
  ****************
  Analysis Options
  ****************
  Flow Units ............... MLD
  Process Models:
    Rainfall/Runoff ........ YES
    RDII ................... NO
    Snowmelt ............... NO
    Groundwater ............ NO
    Flow Routing ........... YES
    Ponding Allowed ........ NO
    Water Quality .......... YES
  Infiltration Method ...... GREEN_AMPT
  Flow Routing Method ...... DYNWAVE
  Surcharge Method ......... EXTRAN
  Starting Date ............ 08/28/2015 08:00:00
  Ending Date .............. 08/28/2015 11:50:00
  Antecedent Dry Days ...... 4.0
  Report Time Step ......... 00:01:00
  Wet Time Step ............ 00:01:00
  Dry Time Step ............ 00:01:00
  Routing Time Step ........ 5.00 sec
  Variable Time Step ....... YES
  Maximum Trials ........... 8
  Number of Threads ........ 1
  Head Tolerance ........... 0.001500 m
  
  
  **************************        Volume         Depth
  Runoff Quantity Continuity     hectare-m            mm
  **************************     ---------       -------
  Total Precipitation ......         0.670        10.837
  Evaporation Loss .........         0.000         0.000
  Infiltration Loss ........         0.389         6.281
  Surface Runoff ...........         0.114         1.848
  Final Storage ............         0.168         2.709
  Continuity Error (%) .....        -0.009
  
  
  **************************           COD         NH3-N            TN            TP            SS
  Runoff Quality Continuity             kg            kg            kg            kg            kg
  **************************    ----------    ----------    ----------    ----------    ----------
  Initial Buildup ..........      2504.640         0.000         0.000         0.000         0.000
  Surface Buildup ..........        20.162         0.000         0.000         0.000         0.000
  Wet Deposition ...........         0.000         0.000         0.000         0.000         0.000
  Sweeping Removal .........         0.000         0.000         0.000         0.000         0.000
  Infiltration Loss ........        33.611         0.000         0.000         0.000         0.000
  BMP Removal ..............         0.000         0.000         0.000         0.000         0.000
  Surface Runoff ...........       104.495         0.000         0.000         0.000         0.000
  Remaining Buildup ........      2386.366         0.000         0.000         0.000         0.000
  Continuity Error (%) .....         0.013         0.000         0.000         0.000         0.000
  
  
  **************************        Volume        Volume
  Flow Routing Continuity        hectare-m      10^6 ltr
  **************************     ---------     ---------
  Dry Weather Inflow .......         0.000         0.000
  Wet Weather Inflow .......         0.114         1.141
  Groundwater Inflow .......         0.000         0.000
  RDII Inflow ..............         0.000         0.000
  External Inflow ..........         0.082         0.822
  External Outflow .........         0.135         1.348
  Flooding Loss ............         0.005         0.053
  Evaporation Loss .........         0.000         0.000
  Exfiltration Loss ........         0.000         0.000
  Initial Stored Volume ....         0.000         0.000
  Final Stored Volume ......         0.062         0.618
  Continuity Error (%) .....        -2.878
  
  
  **************************           COD         NH3-N            TN            TP            SS
  Quality Routing Continuity            kg            kg            kg            kg            kg
  **************************    ----------    ----------    ----------    ----------    ----------
  Dry Weather Inflow .......         0.000         0.000         0.000         0.000         0.000
  Wet Weather Inflow .......       104.306         0.000         0.000         0.000         0.000
  Groundwater Inflow .......         0.000         0.000         0.000         0.000         0.000
  RDII Inflow ..............         0.000         0.000         0.000         0.000         0.000
  External Inflow ..........       137.264         0.000         0.000         0.000         0.000
  External Outflow .........       151.824         0.000         0.000         0.000         0.000
  Flooding Loss ............         5.313         0.000         0.000         0.000         0.000
  Exfiltration Loss ........         0.000         0.000         0.000         0.000         0.000
  Mass Reacted .............         0.000         0.000         0.000         0.000         0.000
  Initial Stored Mass ......         0.000         0.000         0.000         0.000         0.000
  Final Stored Mass ........        70.435         0.000         0.000         0.000         0.000
  Continuity Error (%) .....         5.795         0.000         0.000         0.000         0.000
  
  
  *************************
  Highest Continuity Errors
  *************************
  Node WS02006230 (7.71%)
  Node WS02006115 (6.01%)
  Node WS02006116 (5.43%)
  Node WS02006110 (5.19%)
  Node WS02006112 (5.09%)
  
  
  ***************************
  Time-Step Critical Elements
  ***************************
  Link 8 (78.76%)
  Link 17 (9.98%)
  Link WSL2448 (9.66%)
  
  
  ********************************
  Highest Flow Instability Indexes
  ********************************
  Link WSL2301 (3)
  Link WSL2302 (3)
  Link WSL2297 (2)
  Link WSL2296 (2)
  Link WSL2298 (2)
  
  
  *************************
  Routing Time Step Summary
  *************************
  Minimum Time Step           :     0.50 sec
  Average Time Step           :     1.14 sec
  Maximum Time Step           :     5.00 sec
  Percent in Steady State     :     0.00
  Average Iterations per Step :     2.15
  Percent Not Converging      :     1.93
  
  
  ***************************
  Subcatchment Runoff Summary
  ***************************
  
  ------------------------------------------------------------------------------------------------------------------------------
                            Total      Total      Total      Total     Imperv       Perv      Total       Total     Peak  Runoff
                           Precip      Runon       Evap      Infil     Runoff     Runoff     Runoff      Runoff   Runoff   Coeff
  Subcatchment                 mm         mm         mm         mm         mm         mm         mm    10^6 ltr      MLD
  ------------------------------------------------------------------------------------------------------------------------------
  1                         10.84       8.58       0.00       7.20       4.56       2.29       6.85        0.08     1.57   0.353
  2                         10.84       0.00       0.00       6.04       2.51       0.37       2.88        0.10     1.84   0.266
  3                         10.84       0.00       0.00       6.05       2.46       0.30       2.77        0.14     2.65   0.255
  35                        10.84       0.00       0.00       6.04       2.52       0.38       2.91        0.09     1.67   0.268
  36                        10.84       5.40       0.00       6.94       3.63       0.82       4.46        0.26     4.89   0.275
  40                        10.84       1.50       0.00       6.32       2.84       0.50       3.34        0.13     2.46   0.270
  41                        10.84       0.00       0.00       6.02       2.56       0.47       3.03        0.06     1.13   0.280
  42                        10.84       0.00       0.00       6.03       2.55       0.44       2.99        0.07     1.30   0.276
  43                        10.84       0.00       0.00       5.94       2.66       0.92       3.58        0.01     0.27   0.330
  44                        10.84      74.30       0.00      11.26      20.66      35.80      56.46        0.21     3.87   0.663
  45                        10.84       0.00       0.00       6.00       2.61       0.61       3.22        0.03     0.65   0.297
  46                        10.84       4.47       0.00       6.76       3.58       1.12       4.70        0.10     1.91   0.307
  47                        10.84       0.00       0.00       6.00       2.60       0.59       3.20        0.04     0.70   0.295
  48                        10.84       2.24       0.00       6.40       3.10       0.87       3.97        0.06     1.21   0.303
  55                        10.84       3.32       0.00       6.53       3.40       1.37       4.77        0.04     0.78   0.337
  56                        10.84       4.93       0.00       6.81       3.68       1.19       4.87        0.10     1.98   0.309
  57                        10.84       0.00       0.00       6.05       2.47       0.31       2.77        0.14     2.60   0.256
  59                        10.84       0.00       0.00       5.99       2.62       0.67       3.29        0.03     0.55   0.303
  60                        10.84       7.31       0.00       7.02       4.39       2.84       7.23        0.04     0.74   0.398
  61                        10.84       0.00       0.00       6.08       2.25       0.17       2.42        0.43     8.08   0.223
  64                        10.84       0.00       0.00       6.00       2.60       0.57       3.17        0.04     0.74   0.293
  
  
  ****************************
  Subcatchment Washoff Summary
  ****************************
  
  ------------------------------------------------------------------------------------------
                                 COD         NH3-N            TN            TP            SS
  Subcatchment                    kg            kg            kg            kg            kg
  ------------------------------------------------------------------------------------------
  1                            5.931         0.000         0.000         0.000         0.000
  2                            0.000         0.000         0.000         0.000         0.000
  3                            0.000         0.000         0.000         0.000         0.000
  35                           7.784         0.000         0.000         0.000         0.000
  36                          43.497         0.000         0.000         0.000         0.000
  40                          14.348         0.000         0.000         0.000         0.000
  41                           5.384         0.000         0.000         0.000         0.000
  42                           6.153         0.000         0.000         0.000         0.000
  43                           1.372         0.000         0.000         0.000         0.000
  44                          47.655         0.000         0.000         0.000         0.000
  45                           3.200         0.000         0.000         0.000         0.000
  46                          16.535         0.000         0.000         0.000         0.000
  47                           3.401         0.000         0.000         0.000         0.000
  48                           8.168         0.000         0.000         0.000         0.000
  55                           6.169         0.000         0.000         0.000         0.000
  56                          18.266         0.000         0.000         0.000         0.000
  57                          11.770         0.000         0.000         0.000         0.000
  59                           2.710         0.000         0.000         0.000         0.000
  60                           8.323         0.000         0.000         0.000         0.000
  61                          32.970         0.000         0.000         0.000         0.000
  64                           3.626         0.000         0.000         0.000         0.000
  ------------------------------------------------------------------------------------------
  System                     247.260         0.000         0.000         0.000         0.000
  
  
  ******************
  Node Depth Summary
  ******************
  
  ---------------------------------------------------------------------------------
                                 Average  Maximum  Maximum  Time of Max    Reported
                                   Depth    Depth      HGL   Occurrence   Max Depth
  Node                 Type       Meters   Meters   Meters  days hr:min      Meters
  ---------------------------------------------------------------------------------
  WS01000070           JUNCTION     0.00     0.00     0.00     0  00:00        0.00
  WS01000323           JUNCTION     0.00     0.00     0.00     0  00:00        0.00
  WS01000533           JUNCTION     0.00     0.00     6.86     0  00:00        0.00
  WS01005172           JUNCTION     0.00     0.00     0.00     0  00:00        0.00
  WS01005181           JUNCTION     0.00     0.00     0.00     0  00:00        0.00
  WS01009841           JUNCTION     0.00     0.00     0.00     0  00:00        0.00
  WS02000078           JUNCTION     0.00     0.00     0.00     0  00:00        0.00
  WS02000112           JUNCTION     0.00     0.00     0.00     0  00:00        0.00
  WS02000136           JUNCTION     0.00     0.00     0.00     0  00:00        0.00
  WS02004053           JUNCTION     0.00     0.00     0.00     0  00:00        0.00
  WS02004401           JUNCTION     2.11     2.32     8.32     0  02:45        2.32
  WS02005192           JUNCTION     0.39     1.47     9.34     0  01:47        0.66
  WS02005193           JUNCTION     0.43     0.71     8.53     0  02:39        0.71
  WS02005196           JUNCTION     0.41     0.68     8.53     0  02:40        0.68
  WS02006109           JUNCTION     1.51     1.77     8.39     0  01:42        1.72
  WS02006110           JUNCTION     1.53     1.81     8.41     0  01:42        1.74
  WS02006111           JUNCTION     1.55     1.82     8.40     0  01:42        1.75
  WS02006112           JUNCTION     1.99     2.26     8.38     0  01:42        2.21
  WS02006113           JUNCTION     1.54     1.82     8.41     0  01:42        1.75
  WS02006115           JUNCTION     2.01     2.24     8.34     0  01:42        2.22
  WS02006116           JUNCTION     2.07     2.28     8.32     0  02:45        2.28
  WS02006183           JUNCTION     0.00     0.00     0.00     0  00:00        0.00
  WS02006228           JUNCTION     1.48     1.71     8.36     0  01:43        1.70
  WS02006229           JUNCTION     1.45     1.67     8.36     0  01:43        1.66
  WS02006230           JUNCTION     1.39     1.62     8.37     0  01:43        1.60
  WS02006231           JUNCTION     1.25     1.45     8.35     0  02:43        1.45
  WS02006232           JUNCTION     1.13     1.36     8.39     0  01:42        1.33
  WS02006234           JUNCTION     1.01     1.28     8.44     0  01:42        1.20
  WS02006235           JUNCTION     1.01     1.29     8.46     0  01:42        1.19
  WS02006238           JUNCTION     1.00     1.28     8.46     0  01:42        1.18
  WS02006239           JUNCTION     0.97     1.22     8.43     0  01:43        1.15
  WS02006242           JUNCTION     0.89     1.55     8.85     0  01:41        1.07
  WS02006240           JUNCTION     0.89     1.57     8.86     0  01:41        1.08
  WS02006243           JUNCTION     0.78     1.38     8.80     0  01:44        0.95
  WS02006245           JUNCTION     0.72     1.29     8.78     0  01:43        0.88
  WS02006247           JUNCTION     0.70     1.46     8.97     0  01:43        0.87
  WS02006248           JUNCTION     0.63     0.79     8.38     0  02:40        0.79
  WS02006249           JUNCTION     0.62     1.09     8.69     0  01:46        0.81
  WS02006251           JUNCTION     0.57     1.09     8.76     0  01:46        0.82
  WS02006253           JUNCTION     0.45     0.73     8.53     0  02:39        0.72
  WS02618401           JUNCTION     0.00     0.00     0.00     0  00:00        0.00
  WSA1649              JUNCTION     0.00     0.00     0.00     0  00:00        0.00
  outfall-5            OUTFALL      0.08     0.19     7.86     0  02:40        0.19
  outfall-14           OUTFALL      0.07     0.12     7.78     0  02:45        0.12
  outfall-16           OUTFALL      0.00     0.00     8.39     0  00:00        0.00
  CC-storage           STORAGE      2.71     5.63     8.81     0  02:29        5.63
  
  
  *******************
  Node Inflow Summary
  *******************
  
  -------------------------------------------------------------------------------------------------
                                  Maximum  Maximum                  Lateral       Total        Flow
                                  Lateral    Total  Time of Max      Inflow      Inflow     Balance
                                   Inflow   Inflow   Occurrence      Volume      Volume       Error
  Node                 Type           MLD      MLD  days hr:min    10^6 ltr    10^6 ltr     Percent
  -------------------------------------------------------------------------------------------------
  WS01000070           JUNCTION      0.00     0.00     0  00:00           0           0       0.000 ltr
  WS01000323           JUNCTION      0.00     0.00     0  00:00           0           0       0.000 ltr
  WS01000533           JUNCTION      0.00     0.00     0  00:00           0           0       0.000 ltr
  WS01005172           JUNCTION      0.00     0.00     0  00:00           0           0       0.000 ltr
  WS01005181           JUNCTION      0.00     0.00     0  00:00           0           0       0.000 ltr
  WS01009841           JUNCTION      0.00     0.00     0  00:00           0           0       0.000 ltr
  WS02000078           JUNCTION      0.00     0.00     0  00:00           0           0       0.000 ltr
  WS02000112           JUNCTION      0.00     0.00     0  00:00           0           0       0.000 ltr
  WS02000136           JUNCTION      0.00     0.00     0  00:00           0           0       0.000 ltr
  WS02004053           JUNCTION      0.00     0.00     0  00:00           0           0       0.000 ltr
  WS02004401           JUNCTION      0.05    15.54     0  02:45      0.0086       0.586       5.034
  WS02005192           JUNCTION      2.70    10.33     0  01:47       0.155       0.162       1.403
  WS02005193           JUNCTION      0.09    13.20     0  01:44       0.014       0.205       3.282
  WS02005196           JUNCTION      0.12    12.43     0  01:45      0.0183       0.187       3.210
  WS02006109           JUNCTION      0.08    12.46     0  02:45      0.0129       0.479       5.276
  WS02006110           JUNCTION      0.08    12.54     0  02:45      0.0126       0.469       5.473
  WS02006111           JUNCTION      0.24    15.04     0  02:45      0.0352       0.624       3.375
  WS02006112           JUNCTION      0.18    15.20     0  02:45      0.0263       0.631       5.366
  WS02006113           JUNCTION      2.79    14.83     0  02:45       0.166        0.61       3.989
  WS02006115           JUNCTION      0.08    15.28     0  02:45      0.0129       0.616       6.398
  WS02006116           JUNCTION      0.24    15.48     0  02:45      0.0347       0.618       5.743
  WS02006183           JUNCTION      0.00     0.00     0  00:00           0           0       0.000 ltr
  WS02006228           JUNCTION      4.03    12.38     0  02:45       0.236       0.507       3.627
  WS02006229           JUNCTION      0.13    11.48     0  01:39      0.0193       0.314       5.220
  WS02006230           JUNCTION      0.07    13.28     0  01:39      0.0111       0.327       8.349
  WS02006231           JUNCTION      0.13    16.40     0  01:39      0.0197        0.34       4.547
  WS02006232           JUNCTION      1.91    21.09     0  01:40        0.11       0.399       3.937
  WS02006234           JUNCTION      0.14    23.43     0  01:40      0.0208       0.367       3.893
  WS02006235           JUNCTION      0.14    24.12     0  01:40      0.0215        0.37       2.105
  WS02006238           JUNCTION      0.15    26.21     0  01:40      0.0226       0.375       2.745
  WS02006239           JUNCTION      0.11    30.31     0  01:41      0.0167       0.383       3.952
  WS02006242           JUNCTION      0.08    36.09     0  01:41      0.0124       0.411       4.530
  WS02006240           JUNCTION      0.06    32.01     0  01:41     0.00952       0.393       4.354
  WS02006243           JUNCTION      0.17    34.31     0  01:41      0.0259        0.43       4.049
  WS02006245           JUNCTION      0.07    34.29     0  01:41      0.0109       0.432       3.034
  WS02006247           JUNCTION      1.71    34.40     0  01:41       0.107       0.504       2.146
  WS02006248           JUNCTION      0.12    38.27     0  02:40      0.0185        1.06       0.983
  WS02006249           JUNCTION      0.19    38.14     0  02:40      0.0275       0.836       1.669
  WS02006251           JUNCTION      0.84    37.94     0  02:40       0.049       0.823       1.688
  WS02006253           JUNCTION      0.11    37.12     0  02:40      0.0166       0.797       0.822
  WS02618401           JUNCTION      0.00     0.00     0  00:00           0           0       0.000 ltr
  WSA1649              JUNCTION      0.00     0.00     0  00:00           0           0       0.000 ltr
  outfall-5            OUTFALL       0.00    34.15     0  02:40           0       0.797       0.000
  outfall-14           OUTFALL       0.00    15.54     0  02:45           0       0.551       0.000
  outfall-16           OUTFALL       0.00     0.00     0  00:00           0           0       0.000 ltr
  CC-storage           STORAGE       9.58     9.58     0  03:00       0.711       0.711     -10.980
  
  
  **********************
  Node Surcharge Summary
  **********************
  
  Surcharging occurs when water rises above the top of the highest conduit.
  ---------------------------------------------------------------------
                                               Max. Height   Min. Depth
                                   Hours       Above Crown    Below Rim
  Node                 Type      Surcharged         Meters       Meters
  ---------------------------------------------------------------------
  WS01000070           JUNCTION        3.83          0.000        0.000
  WS01000323           JUNCTION        3.83          0.000        0.000
  WS01000533           JUNCTION        3.83          0.000        2.147
  WS01005172           JUNCTION        3.83          0.000        0.000
  WS01005181           JUNCTION        3.83          0.000        0.000
  WS01009841           JUNCTION        3.83          0.000        0.000
  WS02000078           JUNCTION        3.83          0.000        0.000
  WS02000112           JUNCTION        3.83          0.000        0.000
  WS02000136           JUNCTION        3.83          0.000        0.000
  WS02004053           JUNCTION        3.83          0.000        0.000
  WS02005192           JUNCTION        0.11          0.865        1.954
  WS02005193           JUNCTION        0.13          0.108        2.509
  WS02005196           JUNCTION        0.12          0.082        2.624
  WS02006109           JUNCTION        2.18          0.965        0.873
  WS02006110           JUNCTION        2.18          1.007        0.838
  WS02006111           JUNCTION        2.18          1.022        0.855
  WS02006112           JUNCTION        2.40          1.261        0.422
  WS02006113           JUNCTION        2.18          1.023        0.910
  WS02006115           JUNCTION        2.43          1.244        1.055
  WS02006116           JUNCTION        2.51          1.284        1.066
  WS02006183           JUNCTION        3.83          0.000        0.000
  WS02006228           JUNCTION        2.18          0.912        1.319
  WS02006229           JUNCTION        2.17          0.874        1.580
  WS02006231           JUNCTION        2.16          0.754        0.789
  WS02006232           JUNCTION        2.15          0.661        0.828
  WS02006234           JUNCTION        2.15          0.578        0.679
  WS02006235           JUNCTION        2.15          0.595        0.699
  WS02006238           JUNCTION        2.15          0.583        0.851
  WS02006239           JUNCTION        2.14          0.519        0.810
  WS02006242           JUNCTION        2.14          0.849        0.000
  WS02006240           JUNCTION        2.14          0.873        0.530
  WS02006243           JUNCTION        2.13          0.677        0.103
  WS02006245           JUNCTION        2.09          0.586        0.269
  WS02006247           JUNCTION        2.08          0.760        0.000
  WS02006249           JUNCTION        0.43          0.388        0.000
  WS02006251           JUNCTION        0.18          0.387        1.123
  WS02006253           JUNCTION        0.09          0.029        2.425
  WS02618401           JUNCTION        3.83          0.000        0.000
  WSA1649              JUNCTION        3.83          0.000        0.000
  
  
  *********************
  Node Flooding Summary
  *********************
  
  Flooding refers to all water that overflows a node, whether it ponds or not.
  --------------------------------------------------------------------------
                                                             Total   Maximum
                                 Maximum   Time of Max       Flood    Ponded
                        Hours       Rate    Occurrence      Volume     Depth
  Node                 Flooded       MLD   days hr:min    10^6 ltr    Meters
  --------------------------------------------------------------------------
  WS02006242              0.01     12.45      0  01:41       0.000     0.000
  WS02006247              0.01     10.80      0  01:43       0.000     0.000
  WS02006249              0.01      3.44      0  01:46       0.000     0.000
  CC-storage              0.32      7.04      0  02:30       0.053     0.000
  
  
  **********************
  Storage Volume Summary
  **********************
  
  --------------------------------------------------------------------------------------------------
                         Average     Avg  Evap Exfil       Maximum     Max    Time of Max    Maximum
                          Volume    Pcnt  Pcnt  Pcnt        Volume    Pcnt     Occurrence    Outflow
  Storage Unit           1000 m3    Full  Loss  Loss       1000 m3    Full    days hr:min        MLD
  --------------------------------------------------------------------------------------------------
  CC-storage               0.077      48     0     0         0.159     100       0  02:29      34.56
  
  
  ***********************
  Outfall Loading Summary
  ***********************
  
  ---------------------------------------------------------------------------------------------------------------------------------
                         Flow       Avg       Max       Total         Total         Total         Total         Total         Total
                         Freq      Flow      Flow      Volume           COD         NH3-N            TN            TP            SS
  Outfall Node           Pcnt       MLD       MLD    10^6 ltr            kg            kg            kg            kg            kg
  ---------------------------------------------------------------------------------------------------------------------------------
  outfall-5             87.55     10.42     34.15       0.797        72.126         0.000         0.000         0.000         0.000
  outfall-14            88.82      6.82     15.54       0.551        79.705         0.000         0.000         0.000         0.000
  outfall-16             0.00      0.00      0.00       0.000         0.000         0.000         0.000         0.000         0.000
  ---------------------------------------------------------------------------------------------------------------------------------
  System                58.79     17.24     48.00       1.348       151.831         0.000         0.000         0.000         0.000
  
  
  ********************
  Link Flow Summary
  ********************
  
  -----------------------------------------------------------------------------
                                 Maximum  Time of Max   Maximum    Max/    Max/
                                  |Flow|   Occurrence   |Veloc|    Full    Full
  Link                 Type          MLD  days hr:min     m/sec    Flow   Depth
  -----------------------------------------------------------------------------
  WSL2038              CONDUIT      9.49     0  01:47      0.58    0.47    1.00
  WSL2039              CONDUIT     13.60     0  02:45      0.96    0.70    1.00
  WSL2041              CONDUIT     11.09     0  01:44      0.83    0.54    1.00
  WSL2294              CONDUIT     12.46     0  02:45      0.43    0.42    1.00
  WSL2295              CONDUIT     12.54     0  02:45      0.50    0.56    1.00
  WSL2296              CONDUIT     15.04     0  02:45      0.63    0.08    1.00
  WSL2297              CONDUIT     15.20     0  02:45      0.34    0.29    1.00
  WSL2298              CONDUIT     14.83     0  02:45      0.87    0.68    1.00
  WSL2301              CONDUIT     15.28     0  02:45      0.29    0.14    1.00
  WSL2302              CONDUIT     15.48     0  02:45      0.23    0.19    1.00
  WSL2441              CONDUIT     12.38     0  02:45      0.44    0.32    1.00
  WSL2442              CONDUIT     11.35     0  01:39      0.63    0.29    1.00
  WSL2443              CONDUIT     13.21     0  01:39      0.73    0.21    1.00
  WSL2444              CONDUIT     16.27     0  01:39      0.87    0.26    1.00
  WSL2446              CONDUIT     20.37     0  01:40      0.98    0.35    1.00
  WSL2447              CONDUIT     23.29     0  01:40      1.24    1.20    1.00
  WSL2448              CONDUIT     23.98     0  01:40      1.18    0.67    1.00
  WSL2449              CONDUIT     26.06     0  01:40      1.17    0.91    1.00
  WSL2450              CONDUIT     30.20     0  01:41      1.25    0.63    1.00
  WSL2451              CONDUIT     31.95     0  01:41      1.27    2.08    1.00
  WSL2452              CONDUIT     36.01     0  01:41      1.33    0.69    1.00
  WSL2454              CONDUIT     34.13     0  01:41      1.46    0.80    1.00
  WSL2478              CONDUIT     34.22     0  01:41      1.41    1.21    1.00
  WSL2479              CONDUIT     33.86     0  01:41      1.41    0.64    1.00
  WSL2480              CONDUIT     38.16     0  02:40      1.42    1.77    1.00
  WSL2482              CONDUIT     37.98     0  02:40      1.36    0.99    1.00
  WSL2484              CONDUIT     37.34     0  02:40      1.51    0.53    1.00
  WSL2493              CONDUIT      9.95     0  01:39      0.51    0.17    1.00
  8                    CONDUIT     34.15     0  02:40      6.80    0.45    0.47
  19                   CONDUIT      0.00     0  00:00      0.00    0.00    0.00
  17                   CONDUIT     15.54     0  02:45      5.55    0.20    0.30
  CC-Pump-1            PUMP        17.28     0  02:40              1.00
  CC-Pump-2            PUMP        17.28     0  02:40              1.00
  
  
  ***************************
  Flow Classification Summary
  ***************************
  
  -------------------------------------------------------------------------------------
                      Adjusted    ---------- Fraction of Time in Flow Class ---------- 
                       /Actual         Up    Down  Sub   Sup   Up    Down  Norm  Inlet 
  Conduit               Length    Dry  Dry   Dry   Crit  Crit  Crit  Crit  Ltd   Ctrl  
  -------------------------------------------------------------------------------------
  WSL2038                 1.00   0.00  0.00  0.00  1.00  0.00  0.00  0.00  0.01  0.00
  WSL2039                 1.00   0.00  0.00  0.00  1.00  0.00  0.00  0.00  0.01  0.00
  WSL2041                 1.00   0.00  0.00  0.00  1.00  0.00  0.00  0.00  0.34  0.00
  WSL2294                 1.00   0.00  0.00  0.00  1.00  0.00  0.00  0.00  0.00  0.00
  WSL2295                 1.00   0.00  0.00  0.00  1.00  0.00  0.00  0.00  0.00  0.00
  WSL2296                 1.00   0.00  0.00  0.00  1.00  0.00  0.00  0.00  0.17  0.00
  WSL2297                 1.00   0.00  0.00  0.00  1.00  0.00  0.00  0.00  0.00  0.00
  WSL2298                 1.00   0.00  0.00  0.00  0.98  0.02  0.00  0.00  0.00  0.00
  WSL2301                 1.00   0.00  0.00  0.00  1.00  0.00  0.00  0.00  0.04  0.00
  WSL2302                 1.00   0.00  0.00  0.00  1.00  0.00  0.00  0.00  0.01  0.00
  WSL2441                 1.00   0.00  0.00  0.00  1.00  0.00  0.00  0.00  0.00  0.00
  WSL2442                 1.00   0.00  0.00  0.00  1.00  0.00  0.00  0.00  0.17  0.00
  WSL2443                 1.00   0.00  0.00  0.00  1.00  0.00  0.00  0.00  0.31  0.00
  WSL2444                 1.00   0.00  0.00  0.00  0.93  0.07  0.00  0.00  0.25  0.00
  WSL2446                 1.00   0.00  0.00  0.00  0.92  0.08  0.00  0.00  0.03  0.00
  WSL2447                 1.00   0.00  0.00  0.00  1.00  0.00  0.00  0.00  0.00  0.00
  WSL2448                 1.00   0.00  0.00  0.00  1.00  0.00  0.00  0.00  0.00  0.00
  WSL2449                 1.00   0.00  0.00  0.00  1.00  0.00  0.00  0.00  0.02  0.00
  WSL2450                 1.00   0.00  0.00  0.00  1.00  0.00  0.00  0.00  0.41  0.00
  WSL2451                 1.00   0.00  0.00  0.00  1.00  0.00  0.00  0.00  0.00  0.00
  WSL2452                 1.00   0.00  0.00  0.00  1.00  0.00  0.00  0.00  0.39  0.00
  WSL2454                 1.00   0.00  0.00  0.00  1.00  0.00  0.00  0.00  0.01  0.00
  WSL2478                 1.00   0.00  0.00  0.00  1.00  0.00  0.00  0.00  0.00  0.00
  WSL2479                 1.00   0.00  0.00  0.00  1.00  0.00  0.00  0.00  0.40  0.00
  WSL2480                 1.00   0.00  0.00  0.00  1.00  0.00  0.00  0.00  0.00  0.00
  WSL2482                 1.00   0.00  0.00  0.00  1.00  0.00  0.00  0.00  0.40  0.00
  WSL2484                 1.00   0.00  0.00  0.00  1.00  0.00  0.00  0.00  0.38  0.00
  WSL2493                 1.00   0.00  0.00  0.00  1.00  0.00  0.00  0.00  0.05  0.00
  8                       1.00   0.12  0.00  0.00  0.00  0.88  0.00  0.00  0.08  0.00
  19                      1.00   1.00  0.00  0.00  0.00  0.00  0.00  0.00  0.00  0.00
  17                      1.00   0.11  0.00  0.00  0.00  0.89  0.00  0.00  0.04  0.00
  
  
  *************************
  Conduit Surcharge Summary
  *************************
  
  ----------------------------------------------------------------------------
                                                           Hours        Hours 
                         --------- Hours Full --------   Above Full   Capacity
  Conduit                Both Ends  Upstream  Dnstream   Normal Flow   Limited
  ----------------------------------------------------------------------------
  WSL2038                     0.11      0.11      0.12      0.01         0.01
  WSL2039                     0.13      0.13      0.14      0.01         0.01
  WSL2041                     0.12      0.12      0.13      0.01         0.01
  WSL2294                     2.18      2.18      2.18      0.01         0.01
  WSL2295                     2.18      2.18      2.18      0.01         0.02
  WSL2296                     2.18      2.18      2.74      0.01         0.01
  WSL2297                     2.40      2.40      2.43      0.01         0.01
  WSL2298                     2.18      2.18      2.18      0.01         0.02
  WSL2301                     2.43      2.43      2.51      0.01         0.01
  WSL2302                     2.51      2.51      2.59      0.01         0.01
  WSL2441                     2.18      2.18      2.18      0.01         0.01
  WSL2442                     2.17      2.17      2.18      0.01         0.01
  WSL2443                     2.16      2.16      2.17      0.01         0.01
  WSL2444                     2.15      2.15      2.16      0.01         0.01
  WSL2446                     2.15      2.15      2.15      0.01         0.01
  WSL2447                     2.15      2.15      2.15      0.02         0.02
  WSL2448                     2.14      2.14      2.15      0.01         0.01
  WSL2449                     2.14      2.14      2.14      0.01         0.01
  WSL2450                     2.14      2.14      2.14      0.01         0.01
  WSL2451                     2.14      2.14      2.14      0.07         0.02
  WSL2452                     2.13      2.13      2.14      0.01         0.01
  WSL2454                     2.09      2.09      2.13      0.01         0.01
  WSL2478                     2.08      2.08      2.09      0.04         0.01
  WSL2479                     0.48      0.48      2.08      0.01         0.01
  WSL2480                     0.43      0.43      0.48      0.28         0.25
  WSL2482                     0.17      0.17      0.43      0.01         0.01
  WSL2484                     0.09      0.09      0.17      0.01         0.01
  WSL2493                     2.17      2.17      2.18      0.01         0.01
  
  
  ***************
  Pumping Summary
  ***************
  
  ---------------------------------------------------------------------------------------------------------
                                                  Min       Avg       Max     Total     Power    % Time Off
                        Percent   Number of      Flow      Flow      Flow    Volume     Usage    Pump Curve
  Pump                 Utilized   Start-Ups       MLD       MLD       MLD  10^6 ltr     Kw-hr    Low   High
  ---------------------------------------------------------------------------------------------------------
  CC-Pump-1               21.72           2      0.00      8.80     17.28     0.294      2.64    0.0    0.0
  CC-Pump-2               21.72           2      0.00      8.80     17.28     0.294      2.64    0.0    0.0
  
  
  ***************************
  Link Pollutant Load Summary
  ***************************
  
  ------------------------------------------------------------------------------------------
                                 COD         NH3-N            TN            TP            SS
  Link                            kg            kg            kg            kg            kg
  ------------------------------------------------------------------------------------------
  WSL2038                     16.114         0.000         0.000         0.000         0.000
  WSL2039                     21.701         0.000         0.000         0.000         0.000
  WSL2041                     18.977         0.000         0.000         0.000         0.000
  WSL2294                     79.061         0.000         0.000         0.000         0.000
  WSL2295                     76.967         0.000         0.000         0.000         0.000
  WSL2296                     82.625         0.000         0.000         0.000         0.000
  WSL2297                     83.579         0.000         0.000         0.000         0.000
  WSL2298                     78.255         0.000         0.000         0.000         0.000
  WSL2301                     83.231         0.000         0.000         0.000         0.000
  WSL2302                     85.044         0.000         0.000         0.000         0.000
  WSL2441                     81.011         0.000         0.000         0.000         0.000
  WSL2442                     38.042         0.000         0.000         0.000         0.000
  WSL2443                     39.184         0.000         0.000         0.000         0.000
  WSL2444                     38.467         0.000         0.000         0.000         0.000
  WSL2446                     41.468         0.000         0.000         0.000         0.000
  WSL2447                     45.819         0.000         0.000         0.000         0.000
  WSL2448                     47.361         0.000         0.000         0.000         0.000
  WSL2449                     49.421         0.000         0.000         0.000         0.000
  WSL2450                     52.122         0.000         0.000         0.000         0.000
  WSL2451                     54.542         0.000         0.000         0.000         0.000
  WSL2452                     56.244         0.000         0.000         0.000         0.000
  WSL2454                     56.343         0.000         0.000         0.000         0.000
  WSL2478                     56.302         0.000         0.000         0.000         0.000
  WSL2479                     58.602         0.000         0.000         0.000         0.000
  WSL2480                     80.322         0.000         0.000         0.000         0.000
  WSL2482                     76.946         0.000         0.000         0.000         0.000
  WSL2484                     70.439         0.000         0.000         0.000         0.000
  WSL2493                     39.143         0.000         0.000         0.000         0.000
  8                           72.126         0.000         0.000         0.000         0.000
  19                           0.000         0.000         0.000         0.000         0.000
  17                          79.705         0.000         0.000         0.000         0.000
  CC-Pump-1                   23.742         0.000         0.000         0.000         0.000
  CC-Pump-2                   23.742         0.000         0.000         0.000         0.000
  

  Analysis begun on:  Sun Aug 18 10:00:26 2019
  Analysis ended on:  Sun Aug 18 10:00:26 2019
  Total elapsed time: < 1 sec