
  EPA STORM WATER MANAGEMENT MODEL - VERSION 5.1 (Build 5.2.0.dev5)
  --------------------------------------------------------------

  
  *********************************************************
  NOTE: The summary statistics displayed in this report are
  based on results found at every computational time step,  
  not just on results from each reporting time step.
  *********************************************************
  
  ****************
  Analysis Options
  ****************
  Flow Units ............... MLD
  Process Models:
    Rainfall/Runoff ........ YES
    RDII ................... NO
    Snowmelt ............... NO
    Groundwater ............ NO
    Flow Routing ........... YES
    Ponding Allowed ........ NO
    Water Quality .......... YES
  Infiltration Method ...... GREEN_AMPT
  Flow Routing Method ...... DYNWAVE
  Surcharge Method ......... EXTRAN
  Starting Date ............ 08/28/2015 08:00:00
  Ending Date .............. 08/28/2015 11:50:00
  Antecedent Dry Days ...... 4.0
  Report Time Step ......... 00:01:00
  Wet Time Step ............ 00:01:00
  Dry Time Step ............ 00:01:00
  Routing Time Step ........ 5.00 sec
  Variable Time Step ....... YES
  Maximum Trials ........... 8
  Number of Threads ........ 1
  Head Tolerance ........... 0.001500 m
  
  
  **************************        Volume         Depth
  Runoff Quantity Continuity     hectare-m            mm
  **************************     ---------       -------
  Total Precipitation ......         0.709        11.460
  Evaporation Loss .........         0.000         0.000
  Infiltration Loss ........         0.398         6.440
  Surface Runoff ...........         0.124         2.004
  Final Storage ............         0.187         3.017
  Continuity Error (%) .....        -0.009
  
  
  **************************           COD         NH3-N            TN            TP            SS
  Runoff Quality Continuity             kg            kg            kg            kg            kg
  **************************    ----------    ----------    ----------    ----------    ----------
  Initial Buildup ..........      2504.640         0.000         0.000         0.000         0.000
  Surface Buildup ..........        20.012         0.000         0.000         0.000         0.000
  Wet Deposition ...........         0.000         0.000         0.000         0.000         0.000
  Sweeping Removal .........         0.000         0.000         0.000         0.000         0.000
  Infiltration Loss ........        37.350         0.000         0.000         0.000         0.000
  BMP Removal ..............         0.000         0.000         0.000         0.000         0.000
  Surface Runoff ...........       119.105         0.000         0.000         0.000         0.000
  Remaining Buildup ........      2367.799         0.000         0.000         0.000         0.000
  Continuity Error (%) .....         0.016         0.000         0.000         0.000         0.000
  
  
  **************************        Volume        Volume
  Flow Routing Continuity        hectare-m      10^6 ltr
  **************************     ---------     ---------
  Dry Weather Inflow .......         0.000         0.000
  Wet Weather Inflow .......         0.124         1.237
  Groundwater Inflow .......         0.000         0.000
  RDII Inflow ..............         0.000         0.000
  External Inflow ..........         0.082         0.822
  External Outflow .........         0.143         1.426
  Flooding Loss ............         0.007         0.074
  Evaporation Loss .........         0.000         0.000
  Exfiltration Loss ........         0.000         0.000
  Initial Stored Volume ....         0.000         0.000
  Final Stored Volume ......         0.062         0.618
  Continuity Error (%) .....        -2.841
  
  
  **************************           COD         NH3-N            TN            TP            SS
  Quality Routing Continuity            kg            kg            kg            kg            kg
  **************************    ----------    ----------    ----------    ----------    ----------
  Dry Weather Inflow .......         0.000         0.000         0.000         0.000         0.000
  Wet Weather Inflow .......       118.881         0.000         0.000         0.000         0.000
  Groundwater Inflow .......         0.000         0.000         0.000         0.000         0.000
  RDII Inflow ..............         0.000         0.000         0.000         0.000         0.000
  External Inflow ..........       137.263         0.000         0.000         0.000         0.000
  External Outflow .........       161.616         0.000         0.000         0.000         0.000
  Flooding Loss ............         7.480         0.000         0.000         0.000         0.000
  Exfiltration Loss ........         0.000         0.000         0.000         0.000         0.000
  Mass Reacted .............         0.000         0.000         0.000         0.000         0.000
  Initial Stored Mass ......         0.000         0.000         0.000         0.000         0.000
  Final Stored Mass ........        72.250         0.000         0.000         0.000         0.000
  Continuity Error (%) .....         5.777         0.000         0.000         0.000         0.000
  
  
  *************************
  Highest Continuity Errors
  *************************
  Node WS02006230 (7.53%)
  Node WS02006115 (5.68%)
  Node WS02006116 (5.13%)
  Node WS02006110 (4.91%)
  Node WS02006112 (4.82%)
  
  
  ***************************
  Time-Step Critical Elements
  ***************************
  Link 8 (78.68%)
  Link 17 (10.24%)
  Link WSL2448 (9.50%)
  
  
  ********************************
  Highest Flow Instability Indexes
  ********************************
  Link WSL2301 (3)
  Link WSL2302 (3)
  Link WSL2297 (2)
  Link WSL2296 (2)
  Link WSL2298 (1)
  
  
  *************************
  Routing Time Step Summary
  *************************
  Minimum Time Step           :     0.47 sec
  Average Time Step           :     1.12 sec
  Maximum Time Step           :     5.00 sec
  Percent in Steady State     :     0.00
  Average Iterations per Step :     2.16
  Percent Not Converging      :     1.96
  
  
  ***************************
  Subcatchment Runoff Summary
  ***************************
  
  ------------------------------------------------------------------------------------------------------------------------------
                            Total      Total      Total      Total     Imperv       Perv      Total       Total     Peak  Runoff
                           Precip      Runon       Evap      Infil     Runoff     Runoff     Runoff      Runoff   Runoff   Coeff
  Subcatchment                 mm         mm         mm         mm         mm         mm         mm    10^6 ltr      MLD
  ------------------------------------------------------------------------------------------------------------------------------
  1                         11.46       9.39       0.00       7.40       4.91       2.66       7.57        0.09     1.73   0.363
  2                         11.46       0.00       0.00       6.19       2.67       0.44       3.11        0.10     1.98   0.271
  3                         11.46       0.00       0.00       6.20       2.62       0.37       2.98        0.15     2.86   0.260
  35                        11.46       0.00       0.00       6.19       2.68       0.46       3.14        0.10     1.81   0.274
  36                        11.46       5.86       0.00       7.13       3.89       0.97       4.86        0.29     5.32   0.281
  40                        11.46       1.62       0.00       6.48       3.02       0.60       3.61        0.14     2.66   0.276
  41                        11.46       0.00       0.00       6.17       2.72       0.56       3.28        0.06     1.22   0.286
  42                        11.46       0.00       0.00       6.17       2.70       0.52       3.23        0.07     1.41   0.282
  43                        11.46       0.00       0.00       6.06       2.81       1.10       3.91        0.01     0.29   0.341
  44                        11.46      80.96       0.00      11.57      22.44      39.91      62.35        0.23     4.27   0.675
  45                        11.46       0.00       0.00       6.14       2.76       0.73       3.50        0.04     0.71   0.305
  46                        11.46       4.86       0.00       6.94       3.82       1.32       5.14        0.11     2.09   0.315
  47                        11.46       0.00       0.00       6.14       2.76       0.71       3.47        0.04     0.76   0.303
  48                        11.46       2.43       0.00       6.56       3.30       1.03       4.33        0.07     1.32   0.311
  55                        11.46       3.61       0.00       6.69       3.63       1.61       5.23        0.04     0.86   0.347
  56                        11.46       5.36       0.00       7.00       3.93       1.40       5.33        0.11     2.17   0.317
  57                        11.46       0.00       0.00       6.20       2.62       0.37       2.99        0.15     2.81   0.261
  59                        11.46       0.00       0.00       6.12       2.77       0.80       3.57        0.03     0.60   0.312
  60                        11.46       7.93       0.00       7.20       4.69       3.27       7.96        0.04     0.82   0.411
  61                        11.46       0.00       0.00       6.23       2.39       0.20       2.60        0.47     8.68   0.227
  64                        11.46       0.00       0.00       6.14       2.75       0.69       3.44        0.04     0.81   0.300
  
  
  ****************************
  Subcatchment Washoff Summary
  ****************************
  
  ------------------------------------------------------------------------------------------
                                 COD         NH3-N            TN            TP            SS
  Subcatchment                    kg            kg            kg            kg            kg
  ------------------------------------------------------------------------------------------
  1                            7.164         0.000         0.000         0.000         0.000
  2                            0.000         0.000         0.000         0.000         0.000
  3                            0.000         0.000         0.000         0.000         0.000
  35                           8.976         0.000         0.000         0.000         0.000
  36                          50.880         0.000         0.000         0.000         0.000
  40                          16.633         0.000         0.000         0.000         0.000
  41                           6.230         0.000         0.000         0.000         0.000
  42                           7.110         0.000         0.000         0.000         0.000
  43                           1.613         0.000         0.000         0.000         0.000
  44                          53.328         0.000         0.000         0.000         0.000
  45                           3.723         0.000         0.000         0.000         0.000
  46                          19.463         0.000         0.000         0.000         0.000
  47                           3.955         0.000         0.000         0.000         0.000
  48                           9.566         0.000         0.000         0.000         0.000
  55                           7.284         0.000         0.000         0.000         0.000
  56                          21.525         0.000         0.000         0.000         0.000
  57                          13.532         0.000         0.000         0.000         0.000
  59                           3.160         0.000         0.000         0.000         0.000
  60                           9.770         0.000         0.000         0.000         0.000
  61                          37.797         0.000         0.000         0.000         0.000
  64                           4.213         0.000         0.000         0.000         0.000
  ------------------------------------------------------------------------------------------
  System                     285.922         0.000         0.000         0.000         0.000
  
  
  ******************
  Node Depth Summary
  ******************
  
  ---------------------------------------------------------------------------------
                                 Average  Maximum  Maximum  Time of Max    Reported
                                   Depth    Depth      HGL   Occurrence   Max Depth
  Node                 Type       Meters   Meters   Meters  days hr:min      Meters
  ---------------------------------------------------------------------------------
  WS01000070           JUNCTION     0.00     0.00     0.00     0  00:00        0.00
  WS01000323           JUNCTION     0.00     0.00     0.00     0  00:00        0.00
  WS01000533           JUNCTION     0.00     0.00     6.86     0  00:00        0.00
  WS01005172           JUNCTION     0.00     0.00     0.00     0  00:00        0.00
  WS01005181           JUNCTION     0.00     0.00     0.00     0  00:00        0.00
  WS01009841           JUNCTION     0.00     0.00     0.00     0  00:00        0.00
  WS02000078           JUNCTION     0.00     0.00     0.00     0  00:00        0.00
  WS02000112           JUNCTION     0.00     0.00     0.00     0  00:00        0.00
  WS02000136           JUNCTION     0.00     0.00     0.00     0  00:00        0.00
  WS02004053           JUNCTION     0.00     0.00     0.00     0  00:00        0.00
  WS02004401           JUNCTION     2.12     2.32     8.32     0  02:45        2.32
  WS02005192           JUNCTION     0.39     1.07     8.94     0  01:46        0.66
  WS02005193           JUNCTION     0.44     0.71     8.53     0  02:40        0.71
  WS02005196           JUNCTION     0.41     0.68     8.53     0  02:39        0.68
  WS02006109           JUNCTION     1.52     1.75     8.37     0  01:43        1.74
  WS02006110           JUNCTION     1.54     1.78     8.38     0  01:42        1.74
  WS02006111           JUNCTION     1.55     1.79     8.37     0  01:42        1.75
  WS02006112           JUNCTION     2.00     2.23     8.35     0  01:42        2.21
  WS02006113           JUNCTION     1.54     1.79     8.38     0  01:42        1.75
  WS02006115           JUNCTION     2.02     2.23     8.33     0  02:45        2.23
  WS02006116           JUNCTION     2.08     2.29     8.33     0  02:45        2.29
  WS02006183           JUNCTION     0.00     0.00     0.00     0  00:00        0.00
  WS02006228           JUNCTION     1.49     1.74     8.39     0  01:43        1.72
  WS02006229           JUNCTION     1.45     1.70     8.39     0  01:43        1.68
  WS02006230           JUNCTION     1.39     1.64     8.39     0  01:43        1.64
  WS02006231           JUNCTION     1.25     1.52     8.42     0  01:43        1.51
  WS02006232           JUNCTION     1.13     1.41     8.44     0  01:43        1.40
  WS02006234           JUNCTION     1.02     1.30     8.46     0  01:43        1.29
  WS02006235           JUNCTION     1.01     1.29     8.46     0  01:43        1.29
  WS02006238           JUNCTION     1.00     1.27     8.45     0  01:43        1.27
  WS02006239           JUNCTION     0.97     1.25     8.46     0  01:42        1.21
  WS02006242           JUNCTION     0.89     1.28     8.58     0  01:41        1.07
  WS02006240           JUNCTION     0.90     1.21     8.50     0  01:42        1.10
  WS02006243           JUNCTION     0.78     1.18     8.60     0  01:42        0.95
  WS02006245           JUNCTION     0.72     1.12     8.61     0  01:42        0.89
  WS02006247           JUNCTION     0.70     1.03     8.54     0  01:42        0.87
  WS02006248           JUNCTION     0.63     0.79     8.38     0  02:40        0.79
  WS02006249           JUNCTION     0.63     1.09     8.69     0  01:46        0.81
  WS02006251           JUNCTION     0.57     1.31     8.98     0  01:45        0.82
  WS02006253           JUNCTION     0.45     0.73     8.53     0  02:39        0.73
  WS02618401           JUNCTION     0.00     0.00     0.00     0  00:00        0.00
  WSA1649              JUNCTION     0.00     0.00     0.00     0  00:00        0.00
  outfall-5            OUTFALL      0.08     0.19     7.86     0  02:40        0.19
  outfall-14           OUTFALL      0.07     0.12     7.78     0  02:45        0.12
  outfall-16           OUTFALL      0.00     0.00     8.39     0  00:00        0.00
  CC-storage           STORAGE      2.80     5.63     8.81     0  02:27        5.63
  
  
  *******************
  Node Inflow Summary
  *******************
  
  -------------------------------------------------------------------------------------------------
                                  Maximum  Maximum                  Lateral       Total        Flow
                                  Lateral    Total  Time of Max      Inflow      Inflow     Balance
                                   Inflow   Inflow   Occurrence      Volume      Volume       Error
  Node                 Type           MLD      MLD  days hr:min    10^6 ltr    10^6 ltr     Percent
  -------------------------------------------------------------------------------------------------
  WS01000070           JUNCTION      0.00     0.00     0  00:00           0           0       0.000 ltr
  WS01000323           JUNCTION      0.00     0.00     0  00:00           0           0       0.000 ltr
  WS01000533           JUNCTION      0.00     0.00     0  00:00           0           0       0.000 ltr
  WS01005172           JUNCTION      0.00     0.00     0  00:00           0           0       0.000 ltr
  WS01005181           JUNCTION      0.00     0.00     0  00:00           0           0       0.000 ltr
  WS01009841           JUNCTION      0.00     0.00     0  00:00           0           0       0.000 ltr
  WS02000078           JUNCTION      0.00     0.00     0  00:00           0           0       0.000 ltr
  WS02000112           JUNCTION      0.00     0.00     0  00:00           0           0       0.000 ltr
  WS02000136           JUNCTION      0.00     0.00     0  00:00           0           0       0.000 ltr
  WS02004053           JUNCTION      0.00     0.00     0  00:00           0           0       0.000 ltr
  WS02004401           JUNCTION      0.05    15.97     0  02:45      0.0086       0.623       4.722
  WS02005192           JUNCTION      2.90    10.60     0  01:44       0.166       0.174       1.346
  WS02005193           JUNCTION      0.09    15.50     0  01:44       0.014       0.214       3.151
  WS02005196           JUNCTION      0.12    13.18     0  01:44      0.0183       0.198       3.052
  WS02006109           JUNCTION      0.08    12.73     0  02:45      0.0129       0.506       4.988
  WS02006110           JUNCTION      0.08    12.81     0  02:45      0.0126       0.495       5.159
  WS02006111           JUNCTION      0.24    15.48     0  02:45      0.0352       0.661       3.178
  WS02006112           JUNCTION      0.18    15.63     0  02:45      0.0263       0.668       5.063
  WS02006113           JUNCTION      3.00    15.27     0  02:45       0.177       0.648       3.749
  WS02006115           JUNCTION      0.08    15.71     0  02:45      0.0129       0.653       6.018
  WS02006116           JUNCTION      0.24    15.92     0  02:45      0.0347       0.655       5.405
  WS02006183           JUNCTION      0.00     0.00     0  00:00           0           0       0.000 ltr
  WS02006228           JUNCTION      4.43    12.65     0  02:45       0.257       0.535       3.428
  WS02006229           JUNCTION      0.13    11.10     0  01:39      0.0193       0.322       5.020
  WS02006230           JUNCTION      0.07    13.07     0  01:42      0.0111       0.335       8.143
  WS02006231           JUNCTION      0.13    15.57     0  01:39      0.0197       0.347       4.378
  WS02006232           JUNCTION      2.06    19.90     0  01:39       0.118        0.41       3.826
  WS02006234           JUNCTION      0.14    22.56     0  01:40      0.0208       0.375       3.797
  WS02006235           JUNCTION      0.14    23.34     0  01:40      0.0215       0.377       2.124
  WS02006238           JUNCTION      0.15    25.46     0  01:40      0.0226       0.382       2.759
  WS02006239           JUNCTION      0.11    29.62     0  01:41      0.0167       0.389       3.862
  WS02006242           JUNCTION      0.08    35.91     0  01:41      0.0124       0.416       4.579
  WS02006240           JUNCTION      0.06    31.50     0  01:41     0.00952       0.399       4.078
  WS02006243           JUNCTION      0.17    34.31     0  01:41      0.0259       0.435       4.051
  WS02006245           JUNCTION      0.07    34.40     0  01:42      0.0109       0.436       2.929
  WS02006247           JUNCTION      1.87    34.50     0  01:41       0.115       0.512       2.137
  WS02006248           JUNCTION      0.12    38.41     0  02:40      0.0185        1.09       0.938
  WS02006249           JUNCTION      0.19    38.29     0  02:40      0.0275       0.862       1.611
  WS02006251           JUNCTION      0.91    38.07     0  02:40      0.0528        0.85       1.634
  WS02006253           JUNCTION      0.11    37.30     0  02:40      0.0166       0.819       0.802
  WS02618401           JUNCTION      0.00     0.00     0  00:00           0           0       0.000 ltr
  WSA1649              JUNCTION      0.00     0.00     0  00:00           0           0       0.000 ltr
  outfall-5            OUTFALL       0.00    34.63     0  02:40           0       0.837       0.000
  outfall-14           OUTFALL       0.00    15.97     0  02:45           0       0.589       0.000
  outfall-16           OUTFALL       0.00     0.00     0  00:00           0           0       0.000 ltr
  CC-storage           STORAGE      10.18    10.18     0  03:00       0.744       0.744     -10.713
  
  
  **********************
  Node Surcharge Summary
  **********************
  
  Surcharging occurs when water rises above the top of the highest conduit.
  ---------------------------------------------------------------------
                                               Max. Height   Min. Depth
                                   Hours       Above Crown    Below Rim
  Node                 Type      Surcharged         Meters       Meters
  ---------------------------------------------------------------------
  WS01000070           JUNCTION        3.83          0.000        0.000
  WS01000323           JUNCTION        3.83          0.000        0.000
  WS01000533           JUNCTION        3.83          0.000        2.147
  WS01005172           JUNCTION        3.83          0.000        0.000
  WS01005181           JUNCTION        3.83          0.000        0.000
  WS01009841           JUNCTION        3.83          0.000        0.000
  WS02000078           JUNCTION        3.83          0.000        0.000
  WS02000112           JUNCTION        3.83          0.000        0.000
  WS02000136           JUNCTION        3.83          0.000        0.000
  WS02004053           JUNCTION        3.83          0.000        0.000
  WS02005192           JUNCTION        0.11          0.473        2.346
  WS02005193           JUNCTION        0.14          0.110        2.507
  WS02005196           JUNCTION        0.12          0.082        2.624
  WS02006109           JUNCTION        2.18          0.954        0.884
  WS02006110           JUNCTION        2.18          0.981        0.864
  WS02006111           JUNCTION        2.18          0.992        0.885
  WS02006112           JUNCTION        2.40          1.234        0.449
  WS02006113           JUNCTION        2.18          0.993        0.940
  WS02006115           JUNCTION        2.44          1.227        1.072
  WS02006116           JUNCTION        2.52          1.285        1.065
  WS02006183           JUNCTION        3.83          0.000        0.000
  WS02006228           JUNCTION        2.18          0.939        1.292
  WS02006229           JUNCTION        2.18          0.896        1.558
  WS02006231           JUNCTION        2.17          0.820        0.723
  WS02006232           JUNCTION        2.15          0.711        0.778
  WS02006234           JUNCTION        2.15          0.595        0.662
  WS02006235           JUNCTION        2.15          0.588        0.706
  WS02006238           JUNCTION        2.15          0.575        0.859
  WS02006239           JUNCTION        2.15          0.545        0.784
  WS02006242           JUNCTION        2.14          0.577        0.272
  WS02006240           JUNCTION        2.14          0.512        0.891
  WS02006243           JUNCTION        2.13          0.484        0.296
  WS02006245           JUNCTION        2.11          0.420        0.435
  WS02006247           JUNCTION        2.09          0.333        0.427
  WS02006249           JUNCTION        0.45          0.388        0.000
  WS02006251           JUNCTION        0.21          0.613        0.897
  WS02006253           JUNCTION        0.09          0.029        2.425
  WS02618401           JUNCTION        3.83          0.000        0.000
  WSA1649              JUNCTION        3.83          0.000        0.000
  
  
  *********************
  Node Flooding Summary
  *********************
  
  Flooding refers to all water that overflows a node, whether it ponds or not.
  --------------------------------------------------------------------------
                                                             Total   Maximum
                                 Maximum   Time of Max       Flood    Ponded
                        Hours       Rate    Occurrence      Volume     Depth
  Node                 Flooded       MLD   days hr:min    10^6 ltr    Meters
  --------------------------------------------------------------------------
  WS02006249              0.01     11.70      0  01:46       0.000     0.000
  CC-storage              0.40      7.45      0  02:30       0.073     0.000
  
  
  **********************
  Storage Volume Summary
  **********************
  
  --------------------------------------------------------------------------------------------------
                         Average     Avg  Evap Exfil       Maximum     Max    Time of Max    Maximum
                          Volume    Pcnt  Pcnt  Pcnt        Volume    Pcnt     Occurrence    Outflow
  Storage Unit           1000 m3    Full  Loss  Loss       1000 m3    Full    days hr:min        MLD
  --------------------------------------------------------------------------------------------------
  CC-storage               0.079      50     0     0         0.159     100       0  02:27      34.56
  
  
  ***********************
  Outfall Loading Summary
  ***********************
  
  ---------------------------------------------------------------------------------------------------------------------------------
                         Flow       Avg       Max       Total         Total         Total         Total         Total         Total
                         Freq      Flow      Flow      Volume           COD         NH3-N            TN            TP            SS
  Outfall Node           Pcnt       MLD       MLD    10^6 ltr            kg            kg            kg            kg            kg
  ---------------------------------------------------------------------------------------------------------------------------------
  outfall-5             88.71     10.75     34.63       0.837        78.027         0.000         0.000         0.000         0.000
  outfall-14            89.01      7.23     15.97       0.589        83.597         0.000         0.000         0.000         0.000
  outfall-16             0.00      0.00      0.00       0.000         0.000         0.000         0.000         0.000         0.000
  ---------------------------------------------------------------------------------------------------------------------------------
  System                59.24     17.98     48.91       1.426       161.624         0.000         0.000         0.000         0.000
  
  
  ********************
  Link Flow Summary
  ********************
  
  -----------------------------------------------------------------------------
                                 Maximum  Time of Max   Maximum    Max/    Max/
                                  |Flow|   Occurrence   |Veloc|    Full    Full
  Link                 Type          MLD  days hr:min     m/sec    Flow   Depth
  -----------------------------------------------------------------------------
  WSL2038              CONDUIT     10.23     0  01:47      0.63    0.51    1.00
  WSL2039              CONDUIT     14.60     0  01:44      0.93    0.75    1.00
  WSL2041              CONDUIT     13.06     0  01:44      0.89    0.64    1.00
  WSL2294              CONDUIT     12.73     0  02:45      0.43    0.43    1.00
  WSL2295              CONDUIT     12.81     0  02:45      0.50    0.58    1.00
  WSL2296              CONDUIT     15.48     0  02:45      0.63    0.09    1.00
  WSL2297              CONDUIT     15.63     0  02:45      0.34    0.30    1.00
  WSL2298              CONDUIT     15.27     0  02:45      0.87    0.70    1.00
  WSL2301              CONDUIT     15.71     0  02:45      0.29    0.14    1.00
  WSL2302              CONDUIT     15.92     0  02:45      0.23    0.20    1.00
  WSL2441              CONDUIT     12.65     0  02:45      0.44    0.32    1.00
  WSL2442              CONDUIT     10.97     0  01:39      0.63    0.28    1.00
  WSL2443              CONDUIT     13.00     0  01:42      0.73    0.20    1.00
  WSL2444              CONDUIT     15.44     0  01:39      0.88    0.24    1.00
  WSL2446              CONDUIT     19.14     0  01:39      0.93    0.33    1.00
  WSL2447              CONDUIT     22.42     0  01:40      1.21    1.15    1.00
  WSL2448              CONDUIT     23.19     0  01:40      1.16    0.65    1.00
  WSL2449              CONDUIT     25.31     0  01:40      1.16    0.88    1.00
  WSL2450              CONDUIT     29.51     0  01:41      1.24    0.61    1.00
  WSL2451              CONDUIT     31.44     0  01:41      1.26    2.05    1.00
  WSL2452              CONDUIT     35.83     0  01:41      1.33    0.68    1.00
  WSL2454              CONDUIT     34.14     0  01:41      1.47    0.80    1.00
  WSL2478              CONDUIT     34.33     0  01:42      1.41    1.21    1.00
  WSL2479              CONDUIT     33.93     0  01:41      1.41    0.65    1.00
  WSL2480              CONDUIT     38.30     0  02:40      1.42    1.77    1.00
  WSL2482              CONDUIT     38.12     0  02:40      1.36    0.99    1.00
  WSL2484              CONDUIT     37.42     0  02:40      1.51    0.53    1.00
  WSL2493              CONDUIT      9.47     0  01:43      0.51    0.16    1.00
  8                    CONDUIT     34.63     0  02:40      6.82    0.46    0.47
  19                   CONDUIT      0.00     0  00:00      0.00    0.00    0.00
  17                   CONDUIT     15.97     0  02:45      5.59    0.21    0.31
  CC-Pump-1            PUMP        17.28     0  02:40              1.00
  CC-Pump-2            PUMP        17.28     0  02:40              1.00
  
  
  ***************************
  Flow Classification Summary
  ***************************
  
  -------------------------------------------------------------------------------------
                      Adjusted    ---------- Fraction of Time in Flow Class ---------- 
                       /Actual         Up    Down  Sub   Sup   Up    Down  Norm  Inlet 
  Conduit               Length    Dry  Dry   Dry   Crit  Crit  Crit  Crit  Ltd   Ctrl  
  -------------------------------------------------------------------------------------
  WSL2038                 1.00   0.00  0.00  0.00  1.00  0.00  0.00  0.00  0.01  0.00
  WSL2039                 1.00   0.00  0.00  0.00  1.00  0.00  0.00  0.00  0.00  0.00
  WSL2041                 1.00   0.00  0.00  0.00  1.00  0.00  0.00  0.00  0.33  0.00
  WSL2294                 1.00   0.00  0.00  0.00  1.00  0.00  0.00  0.00  0.00  0.00
  WSL2295                 1.00   0.00  0.00  0.00  1.00  0.00  0.00  0.00  0.00  0.00
  WSL2296                 1.00   0.00  0.00  0.00  1.00  0.00  0.00  0.00  0.17  0.00
  WSL2297                 1.00   0.00  0.00  0.00  1.00  0.00  0.00  0.00  0.00  0.00
  WSL2298                 1.00   0.00  0.00  0.00  0.98  0.02  0.00  0.00  0.00  0.00
  WSL2301                 1.00   0.00  0.00  0.00  1.00  0.00  0.00  0.00  0.04  0.00
  WSL2302                 1.00   0.00  0.00  0.00  1.00  0.00  0.00  0.00  0.01  0.00
  WSL2441                 1.00   0.00  0.00  0.00  1.00  0.00  0.00  0.00  0.00  0.00
  WSL2442                 1.00   0.00  0.00  0.00  1.00  0.00  0.00  0.00  0.17  0.00
  WSL2443                 1.00   0.00  0.00  0.00  1.00  0.00  0.00  0.00  0.31  0.00
  WSL2444                 1.00   0.00  0.00  0.00  0.93  0.07  0.00  0.00  0.24  0.00
  WSL2446                 1.00   0.00  0.00  0.00  0.92  0.08  0.00  0.00  0.03  0.00
  WSL2447                 1.00   0.00  0.00  0.00  1.00  0.00  0.00  0.00  0.00  0.00
  WSL2448                 1.00   0.00  0.00  0.00  1.00  0.00  0.00  0.00  0.00  0.00
  WSL2449                 1.00   0.00  0.00  0.00  1.00  0.00  0.00  0.00  0.02  0.00
  WSL2450                 1.00   0.00  0.00  0.00  1.00  0.00  0.00  0.00  0.41  0.00
  WSL2451                 1.00   0.00  0.00  0.00  1.00  0.00  0.00  0.00  0.00  0.00
  WSL2452                 1.00   0.00  0.00  0.00  1.00  0.00  0.00  0.00  0.39  0.00
  WSL2454                 1.00   0.00  0.00  0.00  1.00  0.00  0.00  0.00  0.01  0.00
  WSL2478                 1.00   0.00  0.00  0.00  1.00  0.00  0.00  0.00  0.00  0.00
  WSL2479                 1.00   0.00  0.00  0.00  1.00  0.00  0.00  0.00  0.40  0.00
  WSL2480                 1.00   0.00  0.00  0.00  1.00  0.00  0.00  0.00  0.00  0.00
  WSL2482                 1.00   0.00  0.00  0.00  1.00  0.00  0.00  0.00  0.40  0.00
  WSL2484                 1.00   0.00  0.00  0.00  1.00  0.00  0.00  0.00  0.38  0.00
  WSL2493                 1.00   0.00  0.00  0.00  1.00  0.00  0.00  0.00  0.05  0.00
  8                       1.00   0.11  0.00  0.00  0.00  0.89  0.00  0.00  0.08  0.00
  19                      1.00   1.00  0.00  0.00  0.00  0.00  0.00  0.00  0.00  0.00
  17                      1.00   0.11  0.00  0.00  0.00  0.89  0.00  0.00  0.03  0.00
  
  
  *************************
  Conduit Surcharge Summary
  *************************
  
  ----------------------------------------------------------------------------
                                                           Hours        Hours 
                         --------- Hours Full --------   Above Full   Capacity
  Conduit                Both Ends  Upstream  Dnstream   Normal Flow   Limited
  ----------------------------------------------------------------------------
  WSL2038                     0.11      0.11      0.12      0.01         0.01
  WSL2039                     0.14      0.14      0.15      0.01         0.01
  WSL2041                     0.12      0.12      0.14      0.01         0.01
  WSL2294                     2.18      2.18      2.18      0.01         0.01
  WSL2295                     2.18      2.18      2.18      0.01         0.02
  WSL2296                     2.18      2.18      2.74      0.01         0.01
  WSL2297                     2.40      2.40      2.44      0.01         0.01
  WSL2298                     2.18      2.18      2.18      0.01         0.02
  WSL2301                     2.44      2.44      2.52      0.01         0.01
  WSL2302                     2.52      2.52      2.59      0.01         0.01
  WSL2441                     2.18      2.18      2.18      0.01         0.01
  WSL2442                     2.18      2.18      2.19      0.01         0.01
  WSL2443                     2.17      2.17      2.18      0.01         0.01
  WSL2444                     2.15      2.15      2.17      0.01         0.01
  WSL2446                     2.15      2.15      2.15      0.01         0.01
  WSL2447                     2.15      2.15      2.15      0.01         0.01
  WSL2448                     2.15      2.15      2.15      0.01         0.01
  WSL2449                     2.14      2.14      2.15      0.01         0.01
  WSL2450                     2.14      2.14      2.14      0.01         0.01
  WSL2451                     2.14      2.14      2.14      0.07         0.02
  WSL2452                     2.13      2.13      2.14      0.01         0.01
  WSL2454                     2.11      2.11      2.13      0.01         0.01
  WSL2478                     2.09      2.09      2.11      0.04         0.01
  WSL2479                     0.49      0.49      2.09      0.01         0.01
  WSL2480                     0.44      0.45      0.49      0.37         0.26
  WSL2482                     0.21      0.21      0.45      0.01         0.01
  WSL2484                     0.09      0.09      0.21      0.01         0.01
  WSL2493                     2.18      2.18      2.18      0.01         0.01
  
  
  ***************
  Pumping Summary
  ***************
  
  ---------------------------------------------------------------------------------------------------------
                                                  Min       Avg       Max     Total     Power    % Time Off
                        Percent   Number of      Flow      Flow      Flow    Volume     Usage    Pump Curve
  Pump                 Utilized   Start-Ups       MLD       MLD       MLD  10^6 ltr     Kw-hr    Low   High
  ---------------------------------------------------------------------------------------------------------
  CC-Pump-1               21.73           2      0.00      8.96     17.28     0.300      2.70    0.0    0.0
  CC-Pump-2               21.73           2      0.00      8.96     17.28     0.300      2.70    0.0    0.0
  
  
  ***************************
  Link Pollutant Load Summary
  ***************************
  
  ------------------------------------------------------------------------------------------
                                 COD         NH3-N            TN            TP            SS
  Link                            kg            kg            kg            kg            kg
  ------------------------------------------------------------------------------------------
  WSL2038                     18.057         0.000         0.000         0.000         0.000
  WSL2039                     23.319         0.000         0.000         0.000         0.000
  WSL2041                     20.773         0.000         0.000         0.000         0.000
  WSL2294                     83.861         0.000         0.000         0.000         0.000
  WSL2295                     81.507         0.000         0.000         0.000         0.000
  WSL2296                     86.759         0.000         0.000         0.000         0.000
  WSL2297                     87.528         0.000         0.000         0.000         0.000
  WSL2298                     82.556         0.000         0.000         0.000         0.000
  WSL2301                     87.047         0.000         0.000         0.000         0.000
  WSL2302                     88.929         0.000         0.000         0.000         0.000
  WSL2441                     86.116         0.000         0.000         0.000         0.000
  WSL2442                     38.540         0.000         0.000         0.000         0.000
  WSL2443                     39.386         0.000         0.000         0.000         0.000
  WSL2444                     38.521         0.000         0.000         0.000         0.000
  WSL2446                     41.493         0.000         0.000         0.000         0.000
  WSL2447                     45.885         0.000         0.000         0.000         0.000
  WSL2448                     47.433         0.000         0.000         0.000         0.000
  WSL2449                     49.587         0.000         0.000         0.000         0.000
  WSL2450                     52.382         0.000         0.000         0.000         0.000
  WSL2451                     54.796         0.000         0.000         0.000         0.000
  WSL2452                     56.561         0.000         0.000         0.000         0.000
  WSL2454                     56.743         0.000         0.000         0.000         0.000
  WSL2478                     56.554         0.000         0.000         0.000         0.000
  WSL2479                     59.463         0.000         0.000         0.000         0.000
  WSL2480                     83.987         0.000         0.000         0.000         0.000
  WSL2482                     81.041         0.000         0.000         0.000         0.000
  WSL2484                     73.689         0.000         0.000         0.000         0.000
  WSL2493                     39.816         0.000         0.000         0.000         0.000
  8                           78.027         0.000         0.000         0.000         0.000
  19                           0.000         0.000         0.000         0.000         0.000
  17                          83.597         0.000         0.000         0.000         0.000
  CC-Pump-1                   24.541         0.000         0.000         0.000         0.000
  CC-Pump-2                   24.541         0.000         0.000         0.000         0.000
  

  Analysis begun on:  Sun Aug 18 10:00:39 2019
  Analysis ended on:  Sun Aug 18 10:00:39 2019
  Total elapsed time: < 1 sec