
  EPA STORM WATER MANAGEMENT MODEL - VERSION 5.1 (Build 5.2.0.dev5)
  --------------------------------------------------------------

  
  *********************************************************
  NOTE: The summary statistics displayed in this report are
  based on results found at every computational time step,  
  not just on results from each reporting time step.
  *********************************************************
  
  ****************
  Analysis Options
  ****************
  Flow Units ............... MLD
  Process Models:
    Rainfall/Runoff ........ YES
    RDII ................... NO
    Snowmelt ............... NO
    Groundwater ............ NO
    Flow Routing ........... YES
    Ponding Allowed ........ NO
    Water Quality .......... YES
  Infiltration Method ...... GREEN_AMPT
  Flow Routing Method ...... DYNWAVE
  Surcharge Method ......... EXTRAN
  Starting Date ............ 08/28/2015 08:00:00
  Ending Date .............. 08/28/2015 11:50:00
  Antecedent Dry Days ...... 4.0
  Report Time Step ......... 00:01:00
  Wet Time Step ............ 00:01:00
  Dry Time Step ............ 00:01:00
  Routing Time Step ........ 5.00 sec
  Variable Time Step ....... YES
  Maximum Trials ........... 8
  Number of Threads ........ 1
  Head Tolerance ........... 0.001500 m
  
  
  **************************        Volume         Depth
  Runoff Quantity Continuity     hectare-m            mm
  **************************     ---------       -------
  Total Precipitation ......         1.096        17.723
  Evaporation Loss .........         0.000         0.000
  Infiltration Loss ........         0.468         7.573
  Surface Runoff ...........         0.229         3.697
  Final Storage ............         0.399         6.454
  Continuity Error (%) .....        -0.007
  
  
  **************************           COD         NH3-N            TN            TP            SS
  Runoff Quality Continuity             kg            kg            kg            kg            kg
  **************************    ----------    ----------    ----------    ----------    ----------
  Initial Buildup ..........      2504.640         0.000         0.000         0.000         0.000
  Surface Buildup ..........        19.924         0.000         0.000         0.000         0.000
  Wet Deposition ...........         0.000         0.000         0.000         0.000         0.000
  Sweeping Removal .........         0.000         0.000         0.000         0.000         0.000
  Infiltration Loss ........        79.725         0.000         0.000         0.000         0.000
  BMP Removal ..............         0.000         0.000         0.000         0.000         0.000
  Surface Runoff ...........       360.220         0.000         0.000         0.000         0.000
  Remaining Buildup ........      2082.840         0.000         0.000         0.000         0.000
  Continuity Error (%) .....         0.070         0.000         0.000         0.000         0.000
  
  
  **************************        Volume        Volume
  Flow Routing Continuity        hectare-m      10^6 ltr
  **************************     ---------     ---------
  Dry Weather Inflow .......         0.000         0.000
  Wet Weather Inflow .......         0.228         2.281
  Groundwater Inflow .......         0.000         0.000
  RDII Inflow ..............         0.000         0.000
  External Inflow ..........         0.082         0.822
  External Outflow .........         0.151         1.514
  Flooding Loss ............         0.093         0.928
  Evaporation Loss .........         0.000         0.000
  Exfiltration Loss ........         0.000         0.000
  Initial Stored Volume ....         0.000         0.000
  Final Stored Volume ......         0.062         0.620
  Continuity Error (%) .....         1.310
  
  
  **************************           COD         NH3-N            TN            TP            SS
  Quality Routing Continuity            kg            kg            kg            kg            kg
  **************************    ----------    ----------    ----------    ----------    ----------
  Dry Weather Inflow .......         0.000         0.000         0.000         0.000         0.000
  Wet Weather Inflow .......       359.267         0.000         0.000         0.000         0.000
  Groundwater Inflow .......         0.000         0.000         0.000         0.000         0.000
  RDII Inflow ..............         0.000         0.000         0.000         0.000         0.000
  External Inflow ..........       137.272         0.000         0.000         0.000         0.000
  External Outflow .........       225.415         0.000         0.000         0.000         0.000
  Flooding Loss ............       142.399         0.000         0.000         0.000         0.000
  Exfiltration Loss ........         0.000         0.000         0.000         0.000         0.000
  Mass Reacted .............         0.000         0.000         0.000         0.000         0.000
  Initial Stored Mass ......         0.000         0.000         0.000         0.000         0.000
  Final Stored Mass ........       121.256         0.000         0.000         0.000         0.000
  Continuity Error (%) .....         1.504         0.000         0.000         0.000         0.000
  
  
  *************************
  Highest Continuity Errors
  *************************
  Node WS02006230 (8.85%)
  Node WS02006229 (5.83%)
  Node WS02006231 (5.17%)
  Node WS02006115 (5.05%)
  Node WS02006116 (4.66%)
  
  
  ***************************
  Time-Step Critical Elements
  ***************************
  Link 8 (84.23%)
  Link WSL2448 (13.08%)
  
  
  ********************************
  Highest Flow Instability Indexes
  ********************************
  Link WSL2302 (4)
  Link WSL2301 (3)
  Link WSL2297 (3)
  Link WSL2296 (3)
  Link WSL2298 (2)
  
  
  *************************
  Routing Time Step Summary
  *************************
  Minimum Time Step           :     0.12 sec
  Average Time Step           :     1.21 sec
  Maximum Time Step           :     5.00 sec
  Percent in Steady State     :     0.00
  Average Iterations per Step :     2.06
  Percent Not Converging      :     0.18
  
  
  ***************************
  Subcatchment Runoff Summary
  ***************************
  
  ------------------------------------------------------------------------------------------------------------------------------
                            Total      Total      Total      Total     Imperv       Perv      Total       Total     Peak  Runoff
                           Precip      Runon       Evap      Infil     Runoff     Runoff     Runoff      Runoff   Runoff   Coeff
  Subcatchment                 mm         mm         mm         mm         mm         mm         mm    10^6 ltr      MLD
  ------------------------------------------------------------------------------------------------------------------------------
  1                         17.72      18.50       0.00       8.83       8.54       7.23      15.77        0.19     4.48   0.435
  2                         17.72       0.00       0.00       7.23       4.19       1.42       5.61        0.19     5.07   0.316
  3                         17.72       0.00       0.00       7.26       4.13       1.19       5.32        0.27     7.14   0.300
  35                        17.72       0.00       0.00       7.22       4.21       1.48       5.69        0.17     4.65   0.321
  36                        17.72      10.95       0.00       8.53       6.52       2.77       9.29        0.55    13.01   0.324
  40                        17.72       2.98       0.00       7.62       4.84       1.82       6.66        0.26     6.72   0.321
  41                        17.72       0.00       0.00       7.18       4.26       1.77       6.03        0.12     3.22   0.340
  42                        17.72       0.00       0.00       7.19       4.24       1.66       5.90        0.13     3.68   0.333
  43                        17.72       0.00       0.00       6.94       4.37       3.23       7.60        0.03     0.82   0.429
  44                        17.72     154.73       0.00      13.86      41.98      85.55     127.53        0.47    10.05   0.739
  45                        17.72       0.00       0.00       7.10       4.31       2.26       6.57        0.07     1.92   0.371
  46                        17.72       9.27       0.00       8.23       6.36       3.74      10.10        0.22     5.41   0.374
  47                        17.72       0.00       0.00       7.11       4.31       2.20       6.51        0.07     2.04   0.367
  48                        17.72       4.56       0.00       7.70       5.33       2.99       8.32        0.13     3.48   0.373
  55                        17.72       6.82       0.00       7.83       5.92       4.47      10.39        0.09     2.30   0.423
  56                        17.72      10.19       0.00       8.31       6.57       3.95      10.52        0.23     5.58   0.377
  57                        17.72       0.00       0.00       7.26       4.13       1.20       5.33        0.27     7.02   0.301
  59                        17.72       0.00       0.00       7.08       4.33       2.43       6.76        0.06     1.63   0.381
  60                        17.72      14.81       0.00       8.43       7.88       8.32      16.20        0.08     2.16   0.498
  61                        17.72       0.00       0.00       7.33       3.83       0.68       4.51        0.81    20.21   0.254
  64                        17.72       0.00       0.00       7.12       4.30       2.14       6.44        0.08     2.18   0.363
  
  
  ****************************
  Subcatchment Washoff Summary
  ****************************
  
  ------------------------------------------------------------------------------------------
                                 COD         NH3-N            TN            TP            SS
  Subcatchment                    kg            kg            kg            kg            kg
  ------------------------------------------------------------------------------------------
  1                           28.286         0.000         0.000         0.000         0.000
  2                            0.000         0.000         0.000         0.000         0.000
  3                            0.000         0.000         0.000         0.000         0.000
  35                          29.475         0.000         0.000         0.000         0.000
  36                         167.759         0.000         0.000         0.000         0.000
  40                          55.223         0.000         0.000         0.000         0.000
  41                          20.927         0.000         0.000         0.000         0.000
  42                          23.683         0.000         0.000         0.000         0.000
  43                           5.817         0.000         0.000         0.000         0.000
  44                         146.855         0.000         0.000         0.000         0.000
  45                          12.919         0.000         0.000         0.000         0.000
  46                          66.199         0.000         0.000         0.000         0.000
  47                          13.673         0.000         0.000         0.000         0.000
  48                          33.068         0.000         0.000         0.000         0.000
  55                          24.988         0.000         0.000         0.000         0.000
  56                          71.231         0.000         0.000         0.000         0.000
  57                          43.406         0.000         0.000         0.000         0.000
  59                          11.067         0.000         0.000         0.000         0.000
  60                          27.294         0.000         0.000         0.000         0.000
  61                         116.685         0.000         0.000         0.000         0.000
  64                          14.508         0.000         0.000         0.000         0.000
  ------------------------------------------------------------------------------------------
  System                     913.062         0.000         0.000         0.000         0.000
  
  
  ******************
  Node Depth Summary
  ******************
  
  ---------------------------------------------------------------------------------
                                 Average  Maximum  Maximum  Time of Max    Reported
                                   Depth    Depth      HGL   Occurrence   Max Depth
  Node                 Type       Meters   Meters   Meters  days hr:min      Meters
  ---------------------------------------------------------------------------------
  WS01000070           JUNCTION     0.00     0.00     0.00     0  00:00        0.00
  WS01000323           JUNCTION     0.00     0.00     0.00     0  00:00        0.00
  WS01000533           JUNCTION     0.00     0.00     6.86     0  00:00        0.00
  WS01005172           JUNCTION     0.00     0.00     0.00     0  00:00        0.00
  WS01005181           JUNCTION     0.00     0.00     0.00     0  00:00        0.00
  WS01009841           JUNCTION     0.00     0.00     0.00     0  00:00        0.00
  WS02000078           JUNCTION     0.00     0.00     0.00     0  00:00        0.00
  WS02000112           JUNCTION     0.00     0.00     0.00     0  00:00        0.00
  WS02000136           JUNCTION     0.00     0.00     0.00     0  00:00        0.00
  WS02004053           JUNCTION     0.00     0.00     0.00     0  00:00        0.00
  WS02004401           JUNCTION     2.10     2.33     8.33     0  03:01        2.33
  WS02005192           JUNCTION     0.37     0.48     8.35     0  03:01        0.48
  WS02005193           JUNCTION     0.42     0.53     8.35     0  03:01        0.53
  WS02005196           JUNCTION     0.39     0.50     8.35     0  03:01        0.50
  WS02006109           JUNCTION     1.50     1.73     8.35     0  03:00        1.73
  WS02006110           JUNCTION     1.52     1.75     8.35     0  03:00        1.75
  WS02006111           JUNCTION     1.53     1.76     8.34     0  03:00        1.76
  WS02006112           JUNCTION     1.98     2.22     8.34     0  03:00        2.22
  WS02006113           JUNCTION     1.53     1.76     8.35     0  03:00        1.76
  WS02006115           JUNCTION     2.00     2.23     8.33     0  03:00        2.23
  WS02006116           JUNCTION     2.06     2.29     8.33     0  03:01        2.29
  WS02006183           JUNCTION     0.00     0.00     0.00     0  00:00        0.00
  WS02006228           JUNCTION     1.47     1.71     8.36     0  03:00        1.71
  WS02006229           JUNCTION     1.43     1.67     8.36     0  03:00        1.67
  WS02006230           JUNCTION     1.38     1.61     8.36     0  03:01        1.61
  WS02006231           JUNCTION     1.24     1.46     8.36     0  03:01        1.46
  WS02006232           JUNCTION     1.12     1.33     8.36     0  03:01        1.33
  WS02006234           JUNCTION     1.00     1.19     8.35     0  03:01        1.19
  WS02006235           JUNCTION     0.99     1.18     8.35     0  03:01        1.18
  WS02006238           JUNCTION     0.99     1.17     8.35     0  03:01        1.17
  WS02006239           JUNCTION     0.96     1.14     8.35     0  03:01        1.14
  WS02006242           JUNCTION     0.88     1.05     8.35     0  03:01        1.05
  WS02006240           JUNCTION     0.88     1.06     8.35     0  03:01        1.06
  WS02006243           JUNCTION     0.77     0.92     8.34     0  03:01        0.92
  WS02006245           JUNCTION     0.70     0.85     8.34     0  03:01        0.85
  WS02006247           JUNCTION     0.69     0.83     8.34     0  03:01        0.83
  WS02006248           JUNCTION     0.61     0.75     8.34     0  03:01        0.75
  WS02006249           JUNCTION     0.61     0.74     8.34     0  03:01        0.74
  WS02006251           JUNCTION     0.54     0.67     8.34     0  03:01        0.67
  WS02006253           JUNCTION     0.43     0.54     8.34     0  03:01        0.54
  WS02618401           JUNCTION     0.00     0.00     0.00     0  00:00        0.00
  WSA1649              JUNCTION     0.00     0.00     0.00     0  00:00        0.00
  outfall-5            OUTFALL      0.09     0.15     7.81     0  03:01        0.15
  outfall-14           OUTFALL      0.08     0.13     7.79     0  03:01        0.13
  outfall-16           OUTFALL      0.00     0.00     8.39     0  00:00        0.00
  CC-storage           STORAGE      5.28     5.63     8.81     0  01:38        5.63
  
  
  *******************
  Node Inflow Summary
  *******************
  
  -------------------------------------------------------------------------------------------------
                                  Maximum  Maximum                  Lateral       Total        Flow
                                  Lateral    Total  Time of Max      Inflow      Inflow     Balance
                                   Inflow   Inflow   Occurrence      Volume      Volume       Error
  Node                 Type           MLD      MLD  days hr:min    10^6 ltr    10^6 ltr     Percent
  -------------------------------------------------------------------------------------------------
  WS01000070           JUNCTION      0.00     0.00     0  00:00           0           0       0.000 ltr
  WS01000323           JUNCTION      0.00     0.00     0  00:00           0           0       0.000 ltr
  WS01000533           JUNCTION      0.00     0.00     0  00:00           0           0       0.000 ltr
  WS01005172           JUNCTION      0.00     0.00     0  00:00           0           0       0.000 ltr
  WS01005181           JUNCTION      0.00     0.00     0  00:00           0           0       0.000 ltr
  WS01009841           JUNCTION      0.00     0.00     0  00:00           0           0       0.000 ltr
  WS02000078           JUNCTION      0.00     0.00     0  00:00           0           0       0.000 ltr
  WS02000112           JUNCTION      0.00     0.00     0  00:00           0           0       0.000 ltr
  WS02000136           JUNCTION      0.00     0.00     0  00:00           0           0       0.000 ltr
  WS02004053           JUNCTION      0.00     0.00     0  00:00           0           0       0.000 ltr
  WS02004401           JUNCTION      0.05    17.37     0  03:01      0.0086       0.715       4.093
  WS02005192           JUNCTION      7.11     7.11     0  03:01       0.283       0.283       0.856
  WS02005193           JUNCTION      0.09     7.26     0  03:01       0.014        0.31       2.277
  WS02005196           JUNCTION      0.12     7.20     0  03:01      0.0183       0.299       2.139
  WS02006109           JUNCTION      0.08     9.62     0  03:01      0.0129       0.557       4.569
  WS02006110           JUNCTION      0.08     9.70     0  03:01      0.0126       0.546       4.716
  WS02006111           JUNCTION      0.24    16.89     0  03:01      0.0352       0.763       2.779
  WS02006112           JUNCTION      0.18    17.04     0  03:01      0.0263       0.766       4.475
  WS02006113           JUNCTION      7.28    16.70     0  03:01       0.296       0.785       3.109
  WS02006115           JUNCTION      0.08    17.12     0  03:01      0.0129       0.749       5.316
  WS02006116           JUNCTION      0.24    17.32     0  03:01      0.0347       0.749       4.887
  WS02006183           JUNCTION      0.00     0.00     0  00:00           0           0       0.000 ltr
  WS02006228           JUNCTION     10.20    10.20     0  03:04       0.497       0.655       2.848
  WS02006229           JUNCTION      0.13     4.45     0  02:02      0.0193       0.275       6.196
  WS02006230           JUNCTION      0.07     4.40     0  02:02      0.0111       0.286       9.709
  WS02006231           JUNCTION      0.13     4.09     0  01:53      0.0197       0.293       5.455
  WS02006232           JUNCTION      5.15     6.15     0  03:01       0.202       0.473       3.348
  WS02006234           JUNCTION      0.14     6.27     0  03:01      0.0208       0.465       3.073
  WS02006235           JUNCTION      0.14     6.39     0  03:01      0.0215       0.461       1.768
  WS02006238           JUNCTION      0.15     6.52     0  03:01      0.0226       0.461       2.250
  WS02006239           JUNCTION      0.11     6.61     0  03:01      0.0168        0.46       3.433
  WS02006242           JUNCTION      0.08     6.75     0  03:01      0.0124       0.459       4.160
  WS02006240           JUNCTION      0.06     6.67     0  03:01     0.00952       0.456       3.726
  WS02006243           JUNCTION      0.17     6.89     0  03:01      0.0259       0.466       3.837
  WS02006245           JUNCTION      0.07     6.96     0  03:01      0.0109       0.455       2.996
  WS02006247           JUNCTION      4.61    11.53     0  03:01       0.214       0.635       1.822
  WS02006248           JUNCTION      0.12    21.39     0  03:01      0.0185       0.952       1.111
  WS02006249           JUNCTION      0.19     9.92     0  03:01      0.0275       0.446       3.293
  WS02006251           JUNCTION      2.36     9.68     0  03:01      0.0955       0.421       3.445
  WS02006253           JUNCTION      0.11     7.37     0  03:01      0.0166       0.325       2.209
  WS02618401           JUNCTION      0.00     0.00     0  00:00           0           0       0.000 ltr
  WSA1649              JUNCTION      0.00     0.00     0  00:00           0           0       0.000 ltr
  outfall-5            OUTFALL       0.00    21.39     0  03:01           0       0.834       0.000
  outfall-14           OUTFALL       0.00    17.36     0  03:01           0        0.68       0.000
  outfall-16           OUTFALL       0.00     0.00     0  00:00           0           0       0.000 ltr
  CC-storage           STORAGE      21.67    21.67     0  03:01        1.09        1.09       0.017
  
  
  **********************
  Node Surcharge Summary
  **********************
  
  Surcharging occurs when water rises above the top of the highest conduit.
  ---------------------------------------------------------------------
                                               Max. Height   Min. Depth
                                   Hours       Above Crown    Below Rim
  Node                 Type      Surcharged         Meters       Meters
  ---------------------------------------------------------------------
  WS01000070           JUNCTION        3.83          0.000        0.000
  WS01000323           JUNCTION        3.83          0.000        0.000
  WS01000533           JUNCTION        3.83          0.000        2.147
  WS01005172           JUNCTION        3.83          0.000        0.000
  WS01005181           JUNCTION        3.83          0.000        0.000
  WS01009841           JUNCTION        3.83          0.000        0.000
  WS02000078           JUNCTION        3.83          0.000        0.000
  WS02000112           JUNCTION        3.83          0.000        0.000
  WS02000136           JUNCTION        3.83          0.000        0.000
  WS02004053           JUNCTION        3.83          0.000        0.000
  WS02006109           JUNCTION        2.16          0.934        0.904
  WS02006110           JUNCTION        2.17          0.952        0.893
  WS02006111           JUNCTION        2.17          0.962        0.915
  WS02006112           JUNCTION        2.41          1.217        0.466
  WS02006113           JUNCTION        2.17          0.960        0.973
  WS02006115           JUNCTION        2.44          1.234        1.065
  WS02006116           JUNCTION        2.52          1.292        1.058
  WS02006183           JUNCTION        3.83          0.000        0.000
  WS02006228           JUNCTION        2.14          0.907        1.324
  WS02006229           JUNCTION        2.11          0.866        1.588
  WS02006231           JUNCTION        2.04          0.756        0.787
  WS02006232           JUNCTION        1.96          0.626        0.863
  WS02006234           JUNCTION        1.88          0.494        0.763
  WS02006235           JUNCTION        1.88          0.483        0.811
  WS02006238           JUNCTION        1.87          0.473        0.961
  WS02006239           JUNCTION        1.85          0.441        0.888
  WS02006242           JUNCTION        1.80          0.347        0.502
  WS02006240           JUNCTION        1.81          0.359        1.044
  WS02006243           JUNCTION        1.74          0.224        0.556
  WS02006245           JUNCTION        1.72          0.151        0.704
  WS02006247           JUNCTION        1.71          0.130        0.630
  WS02006249           JUNCTION        0.61          0.038        0.350
  WS02618401           JUNCTION        3.83          0.000        0.000
  WSA1649              JUNCTION        3.83          0.000        0.000
  
  
  *********************
  Node Flooding Summary
  *********************
  
  Flooding refers to all water that overflows a node, whether it ponds or not.
  --------------------------------------------------------------------------
                                                             Total   Maximum
                                 Maximum   Time of Max       Flood    Ponded
                        Hours       Rate    Occurrence      Volume     Depth
  Node                 Flooded       MLD   days hr:min    10^6 ltr    Meters
  --------------------------------------------------------------------------
  CC-storage              2.19     21.67      0  03:01       0.928     0.000
  
  
  **********************
  Storage Volume Summary
  **********************
  
  --------------------------------------------------------------------------------------------------
                         Average     Avg  Evap Exfil       Maximum     Max    Time of Max    Maximum
                          Volume    Pcnt  Pcnt  Pcnt        Volume    Pcnt     Occurrence    Outflow
  Storage Unit           1000 m3    Full  Loss  Loss       1000 m3    Full    days hr:min        MLD
  --------------------------------------------------------------------------------------------------
  CC-storage               0.149      94     0     0         0.159     100       0  01:38       0.00
  
  
  ***********************
  Outfall Loading Summary
  ***********************
  
  ---------------------------------------------------------------------------------------------------------------------------------
                         Flow       Avg       Max       Total         Total         Total         Total         Total         Total
                         Freq      Flow      Flow      Volume           COD         NH3-N            TN            TP            SS
  Outfall Node           Pcnt       MLD       MLD    10^6 ltr            kg            kg            kg            kg            kg
  ---------------------------------------------------------------------------------------------------------------------------------
  outfall-5             84.29     12.03     21.39       0.834       129.577         0.000         0.000         0.000         0.000
  outfall-14            84.25      9.84     17.36       0.680        95.851         0.000         0.000         0.000         0.000
  outfall-16             0.00      0.00      0.00       0.000         0.000         0.000         0.000         0.000         0.000
  ---------------------------------------------------------------------------------------------------------------------------------
  System                56.18     21.88     38.72       1.514       225.428         0.000         0.000         0.000         0.000
  
  
  ********************
  Link Flow Summary
  ********************
  
  -----------------------------------------------------------------------------
                                 Maximum  Time of Max   Maximum    Max/    Max/
                                  |Flow|   Occurrence   |Veloc|    Full    Full
  Link                 Type          MLD  days hr:min     m/sec    Flow   Depth
  -----------------------------------------------------------------------------
  WSL2038              CONDUIT      7.10     0  03:01      0.51    0.35    0.82
  WSL2039              CONDUIT      7.27     0  03:01      0.78    0.37    0.89
  WSL2041              CONDUIT      7.18     0  03:01      0.57    0.35    0.86
  WSL2294              CONDUIT      9.62     0  03:01      0.43    0.32    1.00
  WSL2295              CONDUIT      9.70     0  03:01      0.50    0.44    1.00
  WSL2296              CONDUIT     16.90     0  03:01      0.63    0.10    1.00
  WSL2297              CONDUIT     17.05     0  03:01      0.34    0.33    1.00
  WSL2298              CONDUIT     16.70     0  03:01      0.87    0.77    1.00
  WSL2301              CONDUIT     17.12     0  03:01      0.29    0.16    1.00
  WSL2302              CONDUIT     17.32     0  03:01      0.26    0.21    1.00
  WSL2441              CONDUIT      9.54     0  03:01      0.44    0.24    1.00
  WSL2442              CONDUIT      4.33     0  02:02      0.63    0.11    1.00
  WSL2443              CONDUIT      3.96     0  01:53      0.73    0.06    1.00
  WSL2444              CONDUIT      4.06     0  01:57      0.88    0.06    1.00
  WSL2446              CONDUIT      6.15     0  03:01      0.84    0.11    1.00
  WSL2447              CONDUIT      6.27     0  03:01      0.72    0.32    1.00
  WSL2448              CONDUIT      6.39     0  03:01      0.59    0.18    1.00
  WSL2449              CONDUIT      6.52     0  03:01      0.56    0.23    1.00
  WSL2450              CONDUIT      6.61     0  03:01      0.65    0.14    1.00
  WSL2451              CONDUIT      6.67     0  03:01      0.62    0.44    1.00
  WSL2452              CONDUIT      6.75     0  03:01      0.64    0.13    1.00
  WSL2454              CONDUIT      6.89     0  03:01      0.79    0.16    1.00
  WSL2478              CONDUIT      6.96     0  03:01      0.68    0.25    1.00
  WSL2479              CONDUIT     11.53     0  03:01      0.61    0.22    1.00
  WSL2480              CONDUIT      9.93     0  03:01      0.66    0.46    1.00
  WSL2482              CONDUIT      9.77     0  03:01      0.58    0.25    0.98
  WSL2484              CONDUIT      7.44     0  03:01      0.68    0.10    0.87
  WSL2493              CONDUIT      4.33     0  02:02      0.51    0.07    1.00
  8                    CONDUIT     21.39     0  03:01      6.00    0.28    0.36
  19                   CONDUIT      0.00     0  00:00      0.00    0.00    0.00
  17                   CONDUIT     17.36     0  03:01      5.73    0.23    0.32
  CC-Pump-1            PUMP         0.00     0  00:00              0.00
  CC-Pump-2            PUMP         0.00     0  00:00              0.00
  
  
  ***************************
  Flow Classification Summary
  ***************************
  
  -------------------------------------------------------------------------------------
                      Adjusted    ---------- Fraction of Time in Flow Class ---------- 
                       /Actual         Up    Down  Sub   Sup   Up    Down  Norm  Inlet 
  Conduit               Length    Dry  Dry   Dry   Crit  Crit  Crit  Crit  Ltd   Ctrl  
  -------------------------------------------------------------------------------------
  WSL2038                 1.00   0.00  0.00  0.00  1.00  0.00  0.00  0.00  0.01  0.00
  WSL2039                 1.00   0.00  0.00  0.00  1.00  0.00  0.00  0.00  0.00  0.00
  WSL2041                 1.00   0.00  0.00  0.00  1.00  0.00  0.00  0.00  0.32  0.00
  WSL2294                 1.00   0.00  0.00  0.00  1.00  0.00  0.00  0.00  0.00  0.00
  WSL2295                 1.00   0.00  0.00  0.00  1.00  0.00  0.00  0.00  0.00  0.00
  WSL2296                 1.00   0.00  0.00  0.00  1.00  0.00  0.00  0.00  0.17  0.00
  WSL2297                 1.00   0.00  0.00  0.00  1.00  0.00  0.00  0.00  0.00  0.00
  WSL2298                 1.00   0.00  0.00  0.00  0.98  0.02  0.00  0.00  0.00  0.00
  WSL2301                 1.00   0.00  0.00  0.00  1.00  0.00  0.00  0.00  0.04  0.00
  WSL2302                 1.00   0.00  0.00  0.00  1.00  0.00  0.00  0.00  0.01  0.00
  WSL2441                 1.00   0.00  0.00  0.00  1.00  0.00  0.00  0.00  0.00  0.00
  WSL2442                 1.00   0.00  0.00  0.00  1.00  0.00  0.00  0.00  0.17  0.00
  WSL2443                 1.00   0.00  0.00  0.00  1.00  0.00  0.00  0.00  0.31  0.00
  WSL2444                 1.00   0.00  0.00  0.00  0.93  0.07  0.00  0.00  0.24  0.00
  WSL2446                 1.00   0.00  0.00  0.00  0.91  0.09  0.00  0.00  0.03  0.00
  WSL2447                 1.00   0.00  0.00  0.00  1.00  0.00  0.00  0.00  0.00  0.00
  WSL2448                 1.00   0.00  0.00  0.00  1.00  0.00  0.00  0.00  0.00  0.00
  WSL2449                 1.00   0.00  0.00  0.00  1.00  0.00  0.00  0.00  0.03  0.00
  WSL2450                 1.00   0.00  0.00  0.00  1.00  0.00  0.00  0.00  0.44  0.00
  WSL2451                 1.00   0.00  0.00  0.00  1.00  0.00  0.00  0.00  0.00  0.00
  WSL2452                 1.00   0.00  0.00  0.00  1.00  0.00  0.00  0.00  0.44  0.00
  WSL2454                 1.00   0.00  0.00  0.00  1.00  0.00  0.00  0.00  0.02  0.00
  WSL2478                 1.00   0.00  0.00  0.00  1.00  0.00  0.00  0.00  0.00  0.00
  WSL2479                 1.00   0.00  0.00  0.00  1.00  0.00  0.00  0.00  0.49  0.00
  WSL2480                 1.00   0.00  0.00  0.00  1.00  0.00  0.00  0.00  0.00  0.00
  WSL2482                 1.00   0.00  0.00  0.00  1.00  0.00  0.00  0.00  0.50  0.00
  WSL2484                 1.00   0.00  0.00  0.00  1.00  0.00  0.00  0.00  0.50  0.00
  WSL2493                 1.00   0.00  0.00  0.00  1.00  0.00  0.00  0.00  0.05  0.00
  8                       1.00   0.16  0.00  0.00  0.00  0.84  0.00  0.00  0.01  0.00
  19                      1.00   1.00  0.00  0.00  0.00  0.00  0.00  0.00  0.00  0.00
  17                      1.00   0.16  0.00  0.00  0.00  0.84  0.00  0.00  0.00  0.00
  
  
  *************************
  Conduit Surcharge Summary
  *************************
  
  ----------------------------------------------------------------------------
                                                           Hours        Hours 
                         --------- Hours Full --------   Above Full   Capacity
  Conduit                Both Ends  Upstream  Dnstream   Normal Flow   Limited
  ----------------------------------------------------------------------------
  WSL2294                     2.16      2.16      2.17      0.01         0.01
  WSL2295                     2.17      2.17      2.17      0.01         0.01
  WSL2296                     2.17      2.17      2.74      0.01         0.01
  WSL2297                     2.41      2.41      2.44      0.01         0.01
  WSL2298                     2.17      2.17      2.17      0.01         0.01
  WSL2301                     2.44      2.44      2.52      0.01         0.01
  WSL2302                     2.52      2.52      2.59      0.01         0.01
  WSL2441                     2.14      2.14      2.16      0.01         0.01
  WSL2442                     2.13      2.13      2.17      0.01         0.01
  WSL2443                     2.04      2.04      2.13      0.01         0.01
  WSL2444                     1.96      1.96      2.04      0.01         0.01
  WSL2446                     1.88      1.88      1.96      0.01         0.01
  WSL2447                     1.88      1.88      1.88      0.01         0.01
  WSL2448                     1.87      1.87      1.88      0.01         0.01
  WSL2449                     1.85      1.85      1.87      0.01         0.01
  WSL2450                     1.81      1.81      1.85      0.01         0.01
  WSL2451                     1.80      1.80      1.81      0.01         0.01
  WSL2452                     1.74      1.74      1.80      0.01         0.01
  WSL2454                     1.72      1.72      1.74      0.01         0.01
  WSL2478                     1.71      1.71      1.72      0.01         0.01
  WSL2479                     0.92      0.92      1.71      0.01         0.01
  WSL2480                     0.61      0.61      0.92      0.01         0.01
  WSL2482                     0.01      0.01      0.61      0.01         0.01
  WSL2493                     2.11      2.11      2.14      0.01         0.01
  
  
  ***************
  Pumping Summary
  ***************
  
  ---------------------------------------------------------------------------------------------------------
                                                  Min       Avg       Max     Total     Power    % Time Off
                        Percent   Number of      Flow      Flow      Flow    Volume     Usage    Pump Curve
  Pump                 Utilized   Start-Ups       MLD       MLD       MLD  10^6 ltr     Kw-hr    Low   High
  ---------------------------------------------------------------------------------------------------------
  CC-Pump-1                0.00           0      0.00      0.00      0.00     0.000      0.00    0.0    0.0
  CC-Pump-2                0.00           0      0.00      0.00      0.00     0.000      0.00    0.0    0.0
  
  
  ***************************
  Link Pollutant Load Summary
  ***************************
  
  ------------------------------------------------------------------------------------------
                                 COD         NH3-N            TN            TP            SS
  Link                            kg            kg            kg            kg            kg
  ------------------------------------------------------------------------------------------
  WSL2038                     46.144         0.000         0.000         0.000         0.000
  WSL2039                     51.064         0.000         0.000         0.000         0.000
  WSL2041                     48.820         0.000         0.000         0.000         0.000
  WSL2294                    126.237         0.000         0.000         0.000         0.000
  WSL2295                    116.712         0.000         0.000         0.000         0.000
  WSL2296                    113.844         0.000         0.000         0.000         0.000
  WSL2297                    108.669         0.000         0.000         0.000         0.000
  WSL2298                    112.228         0.000         0.000         0.000         0.000
  WSL2301                    104.054         0.000         0.000         0.000         0.000
  WSL2302                    101.198         0.000         0.000         0.000         0.000
  WSL2441                    134.623         0.000         0.000         0.000         0.000
  WSL2442                     56.883         0.000         0.000         0.000         0.000
  WSL2443                     53.761         0.000         0.000         0.000         0.000
  WSL2444                     51.941         0.000         0.000         0.000         0.000
  WSL2446                     50.843         0.000         0.000         0.000         0.000
  WSL2447                     49.959         0.000         0.000         0.000         0.000
  WSL2448                     49.655         0.000         0.000         0.000         0.000
  WSL2449                     48.716         0.000         0.000         0.000         0.000
  WSL2450                     47.911         0.000         0.000         0.000         0.000
  WSL2451                     47.243         0.000         0.000         0.000         0.000
  WSL2452                     47.087         0.000         0.000         0.000         0.000
  WSL2454                     46.584         0.000         0.000         0.000         0.000
  WSL2478                     46.284         0.000         0.000         0.000         0.000
  WSL2479                     72.789         0.000         0.000         0.000         0.000
  WSL2480                     82.671         0.000         0.000         0.000         0.000
  WSL2482                     78.916         0.000         0.000         0.000         0.000
  WSL2484                     53.929         0.000         0.000         0.000         0.000
  WSL2493                     58.187         0.000         0.000         0.000         0.000
  8                          129.577         0.000         0.000         0.000         0.000
  19                           0.000         0.000         0.000         0.000         0.000
  17                          95.851         0.000         0.000         0.000         0.000
  CC-Pump-1                    0.000         0.000         0.000         0.000         0.000
  CC-Pump-2                    0.000         0.000         0.000         0.000         0.000
  

  Analysis begun on:  Sun Aug 18 09:33:39 2019
  Analysis ended on:  Sun Aug 18 09:33:40 2019
  Total elapsed time: 00:00:01