
  EPA STORM WATER MANAGEMENT MODEL - VERSION 5.1 (Build 5.2.0.dev5)
  --------------------------------------------------------------

  
  *********************************************************
  NOTE: The summary statistics displayed in this report are
  based on results found at every computational time step,  
  not just on results from each reporting time step.
  *********************************************************
  
  ****************
  Analysis Options
  ****************
  Flow Units ............... MLD
  Process Models:
    Rainfall/Runoff ........ YES
    RDII ................... NO
    Snowmelt ............... NO
    Groundwater ............ NO
    Flow Routing ........... YES
    Ponding Allowed ........ NO
    Water Quality .......... YES
  Infiltration Method ...... GREEN_AMPT
  Flow Routing Method ...... DYNWAVE
  Surcharge Method ......... EXTRAN
  Starting Date ............ 08/28/2015 08:00:00
  Ending Date .............. 08/28/2015 11:50:00
  Antecedent Dry Days ...... 4.0
  Report Time Step ......... 00:01:00
  Wet Time Step ............ 00:01:00
  Dry Time Step ............ 00:01:00
  Routing Time Step ........ 5.00 sec
  Variable Time Step ....... YES
  Maximum Trials ........... 8
  Number of Threads ........ 1
  Head Tolerance ........... 0.001500 m
  
  
  **************************        Volume         Depth
  Runoff Quantity Continuity     hectare-m            mm
  **************************     ---------       -------
  Total Precipitation ......         0.667        10.775
  Evaporation Loss .........         0.000         0.000
  Infiltration Loss ........         0.388         6.265
  Surface Runoff ...........         0.113         1.833
  Final Storage ............         0.166         2.678
  Continuity Error (%) .....        -0.009
  
  
  **************************           COD         NH3-N            TN            TP            SS
  Runoff Quality Continuity             kg            kg            kg            kg            kg
  **************************    ----------    ----------    ----------    ----------    ----------
  Initial Buildup ..........      2504.640         0.000         0.000         0.000         0.000
  Surface Buildup ..........        20.162         0.000         0.000         0.000         0.000
  Wet Deposition ...........         0.000         0.000         0.000         0.000         0.000
  Sweeping Removal .........         0.000         0.000         0.000         0.000         0.000
  Infiltration Loss ........        33.249         0.000         0.000         0.000         0.000
  BMP Removal ..............         0.000         0.000         0.000         0.000         0.000
  Surface Runoff ...........       103.114         0.000         0.000         0.000         0.000
  Remaining Buildup ........      2388.116         0.000         0.000         0.000         0.000
  Continuity Error (%) .....         0.013         0.000         0.000         0.000         0.000
  
  
  **************************        Volume        Volume
  Flow Routing Continuity        hectare-m      10^6 ltr
  **************************     ---------     ---------
  Dry Weather Inflow .......         0.000         0.000
  Wet Weather Inflow .......         0.113         1.131
  Groundwater Inflow .......         0.000         0.000
  RDII Inflow ..............         0.000         0.000
  External Inflow ..........         0.082         0.822
  External Outflow .........         0.074         0.742
  Flooding Loss ............         0.055         0.549
  Evaporation Loss .........         0.000         0.000
  Exfiltration Loss ........         0.000         0.000
  Initial Stored Volume ....         0.000         0.000
  Final Stored Volume ......         0.062         0.618
  Continuity Error (%) .....         2.272
  
  
  **************************           COD         NH3-N            TN            TP            SS
  Quality Routing Continuity            kg            kg            kg            kg            kg
  **************************    ----------    ----------    ----------    ----------    ----------
  Dry Weather Inflow .......         0.000         0.000         0.000         0.000         0.000
  Wet Weather Inflow .......       102.898         0.000         0.000         0.000         0.000
  Groundwater Inflow .......         0.000         0.000         0.000         0.000         0.000
  RDII Inflow ..............         0.000         0.000         0.000         0.000         0.000
  External Inflow ..........       137.266         0.000         0.000         0.000         0.000
  External Outflow .........        89.216         0.000         0.000         0.000         0.000
  Flooding Loss ............        62.860         0.000         0.000         0.000         0.000
  Exfiltration Loss ........         0.000         0.000         0.000         0.000         0.000
  Mass Reacted .............         0.000         0.000         0.000         0.000         0.000
  Initial Stored Mass ......         0.000         0.000         0.000         0.000         0.000
  Final Stored Mass ........        80.473         0.000         0.000         0.000         0.000
  Continuity Error (%) .....         3.171         0.000         0.000         0.000         0.000
  
  
  *************************
  Highest Continuity Errors
  *************************
  Node WS02006230 (10.07%)
  Node WS02006115 (9.79%)
  Node WS02006116 (9.08%)
  Node WS02006112 (8.06%)
  Node WS02004401 (7.81%)
  
  
  ***************************
  Time-Step Critical Elements
  ***************************
  Link 8 (79.12%)
  Link WSL2448 (16.96%)
  
  
  ********************************
  Highest Flow Instability Indexes
  ********************************
  Link WSL2302 (5)
  Link WSL2301 (4)
  Link WSL2297 (4)
  Link WSL2296 (3)
  Link WSL2298 (3)
  
  
  *************************
  Routing Time Step Summary
  *************************
  Minimum Time Step           :     0.07 sec
  Average Time Step           :     1.47 sec
  Maximum Time Step           :     5.00 sec
  Percent in Steady State     :     0.00
  Average Iterations per Step :     2.06
  Percent Not Converging      :     0.32
  
  
  ***************************
  Subcatchment Runoff Summary
  ***************************
  
  ------------------------------------------------------------------------------------------------------------------------------
                            Total      Total      Total      Total     Imperv       Perv      Total       Total     Peak  Runoff
                           Precip      Runon       Evap      Infil     Runoff     Runoff     Runoff      Runoff   Runoff   Coeff
  Subcatchment                 mm         mm         mm         mm         mm         mm         mm    10^6 ltr      MLD
  ------------------------------------------------------------------------------------------------------------------------------
  1                         10.77       8.51       0.00       7.18       4.53       2.25       6.78        0.08     1.56   0.352
  2                         10.77       0.00       0.00       6.03       2.50       0.36       2.86        0.10     1.82   0.265
  3                         10.77       0.00       0.00       6.04       2.45       0.30       2.75        0.14     2.63   0.255
  35                        10.77       0.00       0.00       6.02       2.51       0.38       2.89        0.09     1.66   0.268
  36                        10.77       5.35       0.00       6.92       3.61       0.81       4.42        0.26     4.84   0.274
  40                        10.77       1.49       0.00       6.30       2.82       0.49       3.31        0.13     2.44   0.270
  41                        10.77       0.00       0.00       6.01       2.55       0.46       3.01        0.06     1.12   0.279
  42                        10.77       0.00       0.00       6.01       2.54       0.43       2.96        0.07     1.29   0.275
  43                        10.77       0.00       0.00       5.92       2.64       0.91       3.55        0.01     0.26   0.329
  44                        10.77      73.65       0.00      11.23      20.48      35.40      55.88        0.21     3.84   0.662
  45                        10.77       0.00       0.00       5.98       2.59       0.60       3.19        0.03     0.65   0.296
  46                        10.77       4.43       0.00       6.74       3.56       1.10       4.66        0.10     1.90   0.306
  47                        10.77       0.00       0.00       5.99       2.59       0.58       3.17        0.04     0.69   0.294
  48                        10.77       2.22       0.00       6.39       3.08       0.85       3.93        0.06     1.20   0.303
  55                        10.77       3.29       0.00       6.51       3.38       1.35       4.73        0.04     0.77   0.336
  56                        10.77       4.88       0.00       6.79       3.66       1.17       4.83        0.10     1.96   0.308
  57                        10.77       0.00       0.00       6.04       2.45       0.30       2.75        0.14     2.58   0.255
  59                        10.77       0.00       0.00       5.97       2.60       0.65       3.26        0.03     0.54   0.302
  60                        10.77       7.25       0.00       7.00       4.36       2.80       7.16        0.04     0.74   0.397
  61                        10.77       0.00       0.00       6.06       2.23       0.17       2.40        0.43     8.02   0.223
  64                        10.77       0.00       0.00       5.99       2.58       0.56       3.15        0.04     0.74   0.292
  
  
  ****************************
  Subcatchment Washoff Summary
  ****************************
  
  ------------------------------------------------------------------------------------------
                                 COD         NH3-N            TN            TP            SS
  Subcatchment                    kg            kg            kg            kg            kg
  ------------------------------------------------------------------------------------------
  1                            5.817         0.000         0.000         0.000         0.000
  2                            0.000         0.000         0.000         0.000         0.000
  3                            0.000         0.000         0.000         0.000         0.000
  35                           7.670         0.000         0.000         0.000         0.000
  36                          42.799         0.000         0.000         0.000         0.000
  40                          14.132         0.000         0.000         0.000         0.000
  41                           5.304         0.000         0.000         0.000         0.000
  42                           6.062         0.000         0.000         0.000         0.000
  43                           1.349         0.000         0.000         0.000         0.000
  44                          47.122         0.000         0.000         0.000         0.000
  45                           3.150         0.000         0.000         0.000         0.000
  46                          16.259         0.000         0.000         0.000         0.000
  47                           3.349         0.000         0.000         0.000         0.000
  48                           8.036         0.000         0.000         0.000         0.000
  55                           6.064         0.000         0.000         0.000         0.000
  56                          17.959         0.000         0.000         0.000         0.000
  57                          11.602         0.000         0.000         0.000         0.000
  59                           2.667         0.000         0.000         0.000         0.000
  60                           8.184         0.000         0.000         0.000         0.000
  61                          32.508         0.000         0.000         0.000         0.000
  64                           3.570         0.000         0.000         0.000         0.000
  ------------------------------------------------------------------------------------------
  System                     243.604         0.000         0.000         0.000         0.000
  
  
  ******************
  Node Depth Summary
  ******************
  
  ---------------------------------------------------------------------------------
                                 Average  Maximum  Maximum  Time of Max    Reported
                                   Depth    Depth      HGL   Occurrence   Max Depth
  Node                 Type       Meters   Meters   Meters  days hr:min      Meters
  ---------------------------------------------------------------------------------
  WS01000070           JUNCTION     0.00     0.00     0.00     0  00:00        0.00
  WS01000323           JUNCTION     0.00     0.00     0.00     0  00:00        0.00
  WS01000533           JUNCTION     0.00     0.00     6.86     0  00:00        0.00
  WS01005172           JUNCTION     0.00     0.00     0.00     0  00:00        0.00
  WS01005181           JUNCTION     0.00     0.00     0.00     0  00:00        0.00
  WS01009841           JUNCTION     0.00     0.00     0.00     0  00:00        0.00
  WS02000078           JUNCTION     0.00     0.00     0.00     0  00:00        0.00
  WS02000112           JUNCTION     0.00     0.00     0.00     0  00:00        0.00
  WS02000136           JUNCTION     0.00     0.00     0.00     0  00:00        0.00
  WS02004053           JUNCTION     0.00     0.00     0.00     0  00:00        0.00
  WS02004401           JUNCTION     2.03     2.28     8.28     0  03:01        2.28
  WS02005192           JUNCTION     0.33     0.43     8.30     0  02:18        0.42
  WS02005193           JUNCTION     0.37     0.47     8.29     0  02:18        0.47
  WS02005196           JUNCTION     0.35     0.45     8.30     0  02:17        0.44
  WS02006109           JUNCTION     1.43     1.67     8.29     0  03:00        1.67
  WS02006110           JUNCTION     1.45     1.69     8.29     0  03:00        1.69
  WS02006111           JUNCTION     1.46     1.71     8.29     0  03:00        1.71
  WS02006112           JUNCTION     1.91     2.17     8.29     0  03:00        2.16
  WS02006113           JUNCTION     1.46     1.70     8.29     0  03:00        1.70
  WS02006115           JUNCTION     1.93     2.18     8.28     0  03:00        2.18
  WS02006116           JUNCTION     1.99     2.24     8.28     0  03:00        2.24
  WS02006183           JUNCTION     0.00     0.00     0.00     0  00:00        0.00
  WS02006228           JUNCTION     1.40     1.64     8.29     0  03:00        1.64
  WS02006229           JUNCTION     1.36     1.60     8.29     0  03:00        1.60
  WS02006230           JUNCTION     1.31     1.54     8.29     0  03:00        1.54
  WS02006231           JUNCTION     1.17     1.39     8.29     0  03:00        1.39
  WS02006232           JUNCTION     1.05     1.26     8.29     0  03:00        1.26
  WS02006234           JUNCTION     0.94     1.13     8.29     0  03:00        1.13
  WS02006235           JUNCTION     0.93     1.12     8.29     0  03:00        1.12
  WS02006238           JUNCTION     0.92     1.11     8.29     0  03:00        1.11
  WS02006239           JUNCTION     0.90     1.08     8.29     0  03:00        1.08
  WS02006242           JUNCTION     0.82     0.99     8.29     0  03:00        0.98
  WS02006240           JUNCTION     0.82     1.00     8.29     0  03:00        1.00
  WS02006243           JUNCTION     0.71     0.87     8.29     0  03:00        0.86
  WS02006245           JUNCTION     0.65     0.80     8.29     0  03:00        0.79
  WS02006247           JUNCTION     0.64     0.77     8.28     0  03:00        0.77
  WS02006248           JUNCTION     0.56     0.69     8.28     0  03:00        0.69
  WS02006249           JUNCTION     0.56     0.68     8.28     0  03:01        0.68
  WS02006251           JUNCTION     0.50     0.62     8.29     0  02:18        0.61
  WS02006253           JUNCTION     0.39     0.49     8.29     0  02:17        0.49
  WS02618401           JUNCTION     0.00     0.00     0.00     0  00:00        0.00
  WSA1649              JUNCTION     0.00     0.00     0.00     0  00:00        0.00
  outfall-5            OUTFALL      0.06     0.09     7.76     0  03:01        0.09
  outfall-14           OUTFALL      0.05     0.08     7.74     0  03:01        0.08
  outfall-16           OUTFALL      0.00     0.00     8.39     0  00:00        0.00
  CC-storage           STORAGE      5.20     5.63     8.81     0  01:41        5.63
  
  
  *******************
  Node Inflow Summary
  *******************
  
  -------------------------------------------------------------------------------------------------
                                  Maximum  Maximum                  Lateral       Total        Flow
                                  Lateral    Total  Time of Max      Inflow      Inflow     Balance
                                   Inflow   Inflow   Occurrence      Volume      Volume       Error
  Node                 Type           MLD      MLD  days hr:min    10^6 ltr    10^6 ltr     Percent
  -------------------------------------------------------------------------------------------------
  WS01000070           JUNCTION      0.00     0.00     0  00:00           0           0       0.000 ltr
  WS01000323           JUNCTION      0.00     0.00     0  00:00           0           0       0.000 ltr
  WS01000533           JUNCTION      0.00     0.00     0  00:00           0           0       0.000 ltr
  WS01005172           JUNCTION      0.00     0.00     0  00:00           0           0       0.000 ltr
  WS01005181           JUNCTION      0.00     0.00     0  00:00           0           0       0.000 ltr
  WS01009841           JUNCTION      0.00     0.00     0  00:00           0           0       0.000 ltr
  WS02000078           JUNCTION      0.00     0.00     0  00:00           0           0       0.000 ltr
  WS02000112           JUNCTION      0.00     0.00     0  00:00           0           0       0.000 ltr
  WS02000136           JUNCTION      0.00     0.00     0  00:00           0           0       0.000 ltr
  WS02004053           JUNCTION      0.00     0.00     0  00:00           0           0       0.000 ltr
  WS02004401           JUNCTION      0.05     7.22     0  03:01      0.0086       0.356       8.474
  WS02005192           JUNCTION      2.67     2.67     0  03:01       0.154       0.154       1.466
  WS02005193           JUNCTION      0.09     2.87     0  03:01       0.014       0.182       3.703
  WS02005196           JUNCTION      0.12     2.77     0  03:01      0.0183       0.171       3.555
  WS02006109           JUNCTION      0.08     3.77     0  03:01      0.0129       0.332       7.969
  WS02006110           JUNCTION      0.08     3.84     0  03:01      0.0126       0.321       8.382
  WS02006111           JUNCTION      0.24     6.74     0  03:01      0.0352       0.408       5.416
  WS02006112           JUNCTION      0.18     6.89     0  03:01      0.0263        0.41       8.770
  WS02006113           JUNCTION      2.77     6.54     0  03:01       0.165        0.43       5.904
  WS02006115           JUNCTION      0.08     6.97     0  03:01      0.0129       0.392      10.856
  WS02006116           JUNCTION      0.24     7.16     0  03:01      0.0347       0.392       9.991
  WS02006183           JUNCTION      0.00     0.00     0  00:00           0           0       0.000 ltr
  WS02006228           JUNCTION      3.99     3.99     0  03:02       0.234       0.392       4.925
  WS02006229           JUNCTION      0.13     3.64     0  02:14      0.0193       0.238       7.403
  WS02006230           JUNCTION      0.07     3.68     0  02:14      0.0111       0.247      11.203
  WS02006231           JUNCTION      0.13     3.61     0  01:59      0.0197       0.254       6.437
  WS02006232           JUNCTION      1.90     4.54     0  01:59       0.109       0.343       4.749
  WS02006234           JUNCTION      0.14     4.60     0  02:00      0.0208       0.336       4.355
  WS02006235           JUNCTION      0.14     4.53     0  02:16      0.0215       0.331       2.553
  WS02006238           JUNCTION      0.15     4.79     0  02:04      0.0226        0.33       3.230
  WS02006239           JUNCTION      0.11     4.75     0  02:16      0.0167       0.328       4.900
  WS02006242           JUNCTION      0.08     4.93     0  02:16      0.0124       0.327       6.012
  WS02006240           JUNCTION      0.06     4.83     0  02:16     0.00952       0.324       5.345
  WS02006243           JUNCTION      0.17     5.09     0  02:16      0.0259       0.332       5.472
  WS02006245           JUNCTION      0.07     5.17     0  02:16      0.0109       0.319       4.331
  WS02006247           JUNCTION      1.69     5.86     0  02:16       0.106       0.392       2.980
  WS02006248           JUNCTION      0.12     9.02     0  03:00      0.0185       0.537       1.946
  WS02006249           JUNCTION      0.19     5.08     0  02:16      0.0275       0.273       5.371
  WS02006251           JUNCTION      0.83     4.44     0  02:15      0.0486       0.248       5.782
  WS02006253           JUNCTION      0.11     3.53     0  02:15      0.0166       0.198       3.480
  WS02618401           JUNCTION      0.00     0.00     0  00:00           0           0       0.000 ltr
  WSA1649              JUNCTION      0.00     0.00     0  00:00           0           0       0.000 ltr
  outfall-5            OUTFALL       0.00     9.01     0  03:01           0        0.42       0.000
  outfall-14           OUTFALL       0.00     7.21     0  03:01           0       0.322       0.000
  outfall-16           OUTFALL       0.00     0.00     0  00:00           0           0       0.000 ltr
  CC-storage           STORAGE       9.52     9.52     0  03:00       0.708       0.708      -0.002
  
  
  **********************
  Node Surcharge Summary
  **********************
  
  Surcharging occurs when water rises above the top of the highest conduit.
  ---------------------------------------------------------------------
                                               Max. Height   Min. Depth
                                   Hours       Above Crown    Below Rim
  Node                 Type      Surcharged         Meters       Meters
  ---------------------------------------------------------------------
  WS01000070           JUNCTION        3.83          0.000        0.000
  WS01000323           JUNCTION        3.83          0.000        0.000
  WS01000533           JUNCTION        3.83          0.000        2.147
  WS01005172           JUNCTION        3.83          0.000        0.000
  WS01005181           JUNCTION        3.83          0.000        0.000
  WS01009841           JUNCTION        3.83          0.000        0.000
  WS02000078           JUNCTION        3.83          0.000        0.000
  WS02000112           JUNCTION        3.83          0.000        0.000
  WS02000136           JUNCTION        3.83          0.000        0.000
  WS02004053           JUNCTION        3.83          0.000        0.000
  WS02006109           JUNCTION        2.11          0.869        0.969
  WS02006110           JUNCTION        2.12          0.889        0.956
  WS02006111           JUNCTION        2.14          0.907        0.970
  WS02006112           JUNCTION        2.40          1.166        0.517
  WS02006113           JUNCTION        2.12          0.899        1.034
  WS02006115           JUNCTION        2.43          1.185        1.114
  WS02006116           JUNCTION        2.51          1.244        1.106
  WS02006183           JUNCTION        3.83          0.000        0.000
  WS02006228           JUNCTION        2.09          0.839        1.392
  WS02006229           JUNCTION        2.05          0.798        1.656
  WS02006231           JUNCTION        1.98          0.687        0.856
  WS02006232           JUNCTION        1.88          0.557        0.932
  WS02006234           JUNCTION        1.78          0.427        0.830
  WS02006235           JUNCTION        1.78          0.417        0.877
  WS02006238           JUNCTION        1.77          0.407        1.027
  WS02006239           JUNCTION        1.75          0.377        0.952
  WS02006242           JUNCTION        1.69          0.286        0.563
  WS02006240           JUNCTION        1.69          0.296        1.107
  WS02006243           JUNCTION        1.61          0.165        0.615
  WS02006245           JUNCTION        1.58          0.095        0.760
  WS02006247           JUNCTION        1.57          0.075        0.685
  WS02618401           JUNCTION        3.83          0.000        0.000
  WSA1649              JUNCTION        3.83          0.000        0.000
  
  
  *********************
  Node Flooding Summary
  *********************
  
  Flooding refers to all water that overflows a node, whether it ponds or not.
  --------------------------------------------------------------------------
                                                             Total   Maximum
                                 Maximum   Time of Max       Flood    Ponded
                        Hours       Rate    Occurrence      Volume     Depth
  Node                 Flooded       MLD   days hr:min    10^6 ltr    Meters
  --------------------------------------------------------------------------
  CC-storage              2.14      9.52      0  03:00       0.549     0.000
  
  
  **********************
  Storage Volume Summary
  **********************
  
  --------------------------------------------------------------------------------------------------
                         Average     Avg  Evap Exfil       Maximum     Max    Time of Max    Maximum
                          Volume    Pcnt  Pcnt  Pcnt        Volume    Pcnt     Occurrence    Outflow
  Storage Unit           1000 m3    Full  Loss  Loss       1000 m3    Full    days hr:min        MLD
  --------------------------------------------------------------------------------------------------
  CC-storage               0.147      92     0     0         0.159     100       0  01:41       0.00
  
  
  ***********************
  Outfall Loading Summary
  ***********************
  
  ---------------------------------------------------------------------------------------------------------------------------------
                         Flow       Avg       Max       Total         Total         Total         Total         Total         Total
                         Freq      Flow      Flow      Volume           COD         NH3-N            TN            TP            SS
  Outfall Node           Pcnt       MLD       MLD    10^6 ltr            kg            kg            kg            kg            kg
  ---------------------------------------------------------------------------------------------------------------------------------
  outfall-5             79.64      6.51      9.01       0.420        49.066         0.000         0.000         0.000         0.000
  outfall-14            79.62      4.99      7.21       0.322        40.156         0.000         0.000         0.000         0.000
  outfall-16             0.00      0.00      0.00       0.000         0.000         0.000         0.000         0.000         0.000
  ---------------------------------------------------------------------------------------------------------------------------------
  System                53.08     11.51     16.22       0.742        89.222         0.000         0.000         0.000         0.000
  
  
  ********************
  Link Flow Summary
  ********************
  
  -----------------------------------------------------------------------------
                                 Maximum  Time of Max   Maximum    Max/    Max/
                                  |Flow|   Occurrence   |Veloc|    Full    Full
  Link                 Type          MLD  days hr:min     m/sec    Flow   Depth
  -----------------------------------------------------------------------------
  WSL2038              CONDUIT      2.67     0  03:01      0.47    0.13    0.73
  WSL2039              CONDUIT      2.99     0  02:19      0.71    0.15    0.80
  WSL2041              CONDUIT      2.79     0  03:01      0.52    0.14    0.76
  WSL2294              CONDUIT      3.77     0  03:01      0.43    0.13    1.00
  WSL2295              CONDUIT      3.84     0  03:01      0.50    0.17    1.00
  WSL2296              CONDUIT      6.74     0  03:01      0.63    0.04    1.00
  WSL2297              CONDUIT      6.89     0  03:01      0.34    0.13    1.00
  WSL2298              CONDUIT      6.55     0  03:01      0.87    0.30    1.00
  WSL2301              CONDUIT      6.97     0  03:01      0.29    0.06    1.00
  WSL2302              CONDUIT      7.16     0  03:01      0.23    0.09    1.00
  WSL2441              CONDUIT      3.69     0  03:01      0.44    0.09    1.00
  WSL2442              CONDUIT      3.61     0  02:14      0.63    0.09    1.00
  WSL2443              CONDUIT      3.48     0  01:59      0.73    0.05    1.00
  WSL2444              CONDUIT      3.59     0  01:59      0.87    0.06    1.00
  WSL2446              CONDUIT      4.48     0  02:00      0.84    0.08    1.00
  WSL2447              CONDUIT      4.40     0  02:16      0.70    0.23    1.00
  WSL2448              CONDUIT      4.66     0  02:04      0.56    0.13    1.00
  WSL2449              CONDUIT      4.65     0  02:16      0.54    0.16    1.00
  WSL2450              CONDUIT      4.77     0  02:16      0.62    0.10    1.00
  WSL2451              CONDUIT      4.85     0  02:16      0.59    0.32    1.00
  WSL2452              CONDUIT      4.93     0  02:16      0.61    0.09    1.00
  WSL2454              CONDUIT      5.10     0  02:16      0.75    0.12    1.00
  WSL2478              CONDUIT      5.02     0  02:16      0.65    0.18    1.00
  WSL2479              CONDUIT      5.91     0  02:16      0.58    0.11    1.00
  WSL2480              CONDUIT      4.91     0  02:16      0.62    0.23    0.98
  WSL2482              CONDUIT      4.01     0  02:15      0.54    0.10    0.93
  WSL2484              CONDUIT      3.43     0  02:15      0.64    0.05    0.79
  WSL2493              CONDUIT      3.53     0  02:14      0.51    0.06    1.00
  8                    CONDUIT      9.01     0  03:01      4.69    0.12    0.23
  19                   CONDUIT      0.00     0  00:00      0.00    0.00    0.00
  17                   CONDUIT      7.21     0  03:01      4.45    0.09    0.21
  CC-Pump-1            PUMP         0.00     0  00:00              0.00
  CC-Pump-2            PUMP         0.00     0  00:00              0.00
  
  
  ***************************
  Flow Classification Summary
  ***************************
  
  -------------------------------------------------------------------------------------
                      Adjusted    ---------- Fraction of Time in Flow Class ---------- 
                       /Actual         Up    Down  Sub   Sup   Up    Down  Norm  Inlet 
  Conduit               Length    Dry  Dry   Dry   Crit  Crit  Crit  Crit  Ltd   Ctrl  
  -------------------------------------------------------------------------------------
  WSL2038                 1.00   0.00  0.00  0.00  1.00  0.00  0.00  0.00  0.01  0.00
  WSL2039                 1.00   0.00  0.00  0.00  1.00  0.00  0.00  0.00  0.00  0.00
  WSL2041                 1.00   0.00  0.00  0.00  1.00  0.00  0.00  0.00  0.34  0.00
  WSL2294                 1.00   0.00  0.00  0.00  1.00  0.00  0.00  0.00  0.00  0.00
  WSL2295                 1.00   0.00  0.00  0.00  1.00  0.00  0.00  0.00  0.00  0.00
  WSL2296                 1.00   0.00  0.00  0.00  1.00  0.00  0.00  0.00  0.17  0.00
  WSL2297                 1.00   0.00  0.00  0.00  1.00  0.00  0.00  0.00  0.00  0.00
  WSL2298                 1.00   0.00  0.00  0.00  0.97  0.03  0.00  0.00  0.00  0.00
  WSL2301                 1.00   0.00  0.00  0.00  1.00  0.00  0.00  0.00  0.04  0.00
  WSL2302                 1.00   0.00  0.00  0.00  1.00  0.00  0.00  0.00  0.01  0.00
  WSL2441                 1.00   0.00  0.00  0.00  1.00  0.00  0.00  0.00  0.00  0.00
  WSL2442                 1.00   0.00  0.00  0.00  1.00  0.00  0.00  0.00  0.17  0.00
  WSL2443                 1.00   0.00  0.00  0.00  1.00  0.00  0.00  0.00  0.31  0.00
  WSL2444                 1.00   0.00  0.00  0.00  0.91  0.09  0.00  0.00  0.25  0.00
  WSL2446                 1.00   0.00  0.00  0.00  0.89  0.11  0.00  0.00  0.03  0.00
  WSL2447                 1.00   0.00  0.00  0.00  1.00  0.00  0.00  0.00  0.00  0.00
  WSL2448                 1.00   0.00  0.00  0.00  1.00  0.00  0.00  0.00  0.00  0.00
  WSL2449                 1.00   0.00  0.00  0.00  1.00  0.00  0.00  0.00  0.03  0.00
  WSL2450                 1.00   0.00  0.00  0.00  1.00  0.00  0.00  0.00  0.45  0.00
  WSL2451                 1.00   0.00  0.00  0.00  1.00  0.00  0.00  0.00  0.00  0.00
  WSL2452                 1.00   0.00  0.00  0.00  1.00  0.00  0.00  0.00  0.46  0.00
  WSL2454                 1.00   0.00  0.00  0.00  1.00  0.00  0.00  0.00  0.02  0.00
  WSL2478                 1.00   0.00  0.00  0.00  1.00  0.00  0.00  0.00  0.00  0.00
  WSL2479                 1.00   0.00  0.00  0.00  1.00  0.00  0.00  0.00  0.50  0.00
  WSL2480                 1.00   0.00  0.00  0.00  1.00  0.00  0.00  0.00  0.00  0.00
  WSL2482                 1.00   0.00  0.00  0.00  1.00  0.00  0.00  0.00  0.52  0.00
  WSL2484                 1.00   0.00  0.00  0.00  1.00  0.00  0.00  0.00  0.53  0.00
  WSL2493                 1.00   0.00  0.00  0.00  1.00  0.00  0.00  0.00  0.05  0.00
  8                       1.00   0.20  0.00  0.00  0.00  0.80  0.00  0.00  0.01  0.00
  19                      1.00   1.00  0.00  0.00  0.00  0.00  0.00  0.00  0.00  0.00
  17                      1.00   0.20  0.00  0.00  0.00  0.80  0.00  0.00  0.00  0.00
  
  
  *************************
  Conduit Surcharge Summary
  *************************
  
  ----------------------------------------------------------------------------
                                                           Hours        Hours 
                         --------- Hours Full --------   Above Full   Capacity
  Conduit                Both Ends  Upstream  Dnstream   Normal Flow   Limited
  ----------------------------------------------------------------------------
  WSL2294                     2.11      2.11      2.12      0.01         0.01
  WSL2295                     2.12      2.12      2.12      0.01         0.01
  WSL2296                     2.14      2.14      2.74      0.01         0.01
  WSL2297                     2.40      2.40      2.43      0.01         0.01
  WSL2298                     2.12      2.12      2.14      0.01         0.01
  WSL2301                     2.43      2.43      2.51      0.01         0.01
  WSL2302                     2.51      2.51      2.59      0.01         0.01
  WSL2441                     2.09      2.09      2.11      0.01         0.01
  WSL2442                     2.09      2.09      2.13      0.01         0.01
  WSL2443                     1.98      1.98      2.09      0.01         0.01
  WSL2444                     1.88      1.88      1.98      0.01         0.01
  WSL2446                     1.78      1.78      1.88      0.01         0.01
  WSL2447                     1.78      1.78      1.78      0.01         0.01
  WSL2448                     1.77      1.77      1.78      0.01         0.01
  WSL2449                     1.75      1.75      1.77      0.01         0.01
  WSL2450                     1.69      1.69      1.75      0.01         0.01
  WSL2451                     1.69      1.69      1.69      0.01         0.01
  WSL2452                     1.61      1.61      1.69      0.01         0.01
  WSL2454                     1.58      1.58      1.61      0.01         0.01
  WSL2478                     1.57      1.57      1.58      0.01         0.01
  WSL2479                     0.01      0.01      1.57      0.01         0.01
  WSL2493                     2.05      2.05      2.09      0.01         0.01
  
  
  ***************
  Pumping Summary
  ***************
  
  ---------------------------------------------------------------------------------------------------------
                                                  Min       Avg       Max     Total     Power    % Time Off
                        Percent   Number of      Flow      Flow      Flow    Volume     Usage    Pump Curve
  Pump                 Utilized   Start-Ups       MLD       MLD       MLD  10^6 ltr     Kw-hr    Low   High
  ---------------------------------------------------------------------------------------------------------
  CC-Pump-1                0.00           0      0.00      0.00      0.00     0.000      0.00    0.0    0.0
  CC-Pump-2                0.00           0      0.00      0.00      0.00     0.000      0.00    0.0    0.0
  
  
  ***************************
  Link Pollutant Load Summary
  ***************************
  
  ------------------------------------------------------------------------------------------
                                 COD         NH3-N            TN            TP            SS
  Link                            kg            kg            kg            kg            kg
  ------------------------------------------------------------------------------------------
  WSL2038                     14.386         0.000         0.000         0.000         0.000
  WSL2039                     19.467         0.000         0.000         0.000         0.000
  WSL2041                     17.173         0.000         0.000         0.000         0.000
  WSL2294                     51.139         0.000         0.000         0.000         0.000
  WSL2295                     44.969         0.000         0.000         0.000         0.000
  WSL2296                     46.413         0.000         0.000         0.000         0.000
  WSL2297                     45.892         0.000         0.000         0.000         0.000
  WSL2298                     43.106         0.000         0.000         0.000         0.000
  WSL2301                     44.692         0.000         0.000         0.000         0.000
  WSL2302                     45.516         0.000         0.000         0.000         0.000
  WSL2441                     55.876         0.000         0.000         0.000         0.000
  WSL2442                     42.679         0.000         0.000         0.000         0.000
  WSL2443                     41.057         0.000         0.000         0.000         0.000
  WSL2444                     40.129         0.000         0.000         0.000         0.000
  WSL2446                     39.532         0.000         0.000         0.000         0.000
  WSL2447                     38.966         0.000         0.000         0.000         0.000
  WSL2448                     38.654         0.000         0.000         0.000         0.000
  WSL2449                     38.226         0.000         0.000         0.000         0.000
  WSL2450                     38.009         0.000         0.000         0.000         0.000
  WSL2451                     37.822         0.000         0.000         0.000         0.000
  WSL2452                     38.096         0.000         0.000         0.000         0.000
  WSL2454                     37.438         0.000         0.000         0.000         0.000
  WSL2478                     36.943         0.000         0.000         0.000         0.000
  WSL2479                     41.455         0.000         0.000         0.000         0.000
  WSL2480                     33.217         0.000         0.000         0.000         0.000
  WSL2482                     29.192         0.000         0.000         0.000         0.000
  WSL2484                     22.327         0.000         0.000         0.000         0.000
  WSL2493                     42.345         0.000         0.000         0.000         0.000
  8                           49.066         0.000         0.000         0.000         0.000
  19                           0.000         0.000         0.000         0.000         0.000
  17                          40.156         0.000         0.000         0.000         0.000
  CC-Pump-1                    0.000         0.000         0.000         0.000         0.000
  CC-Pump-2                    0.000         0.000         0.000         0.000         0.000
  

  Analysis begun on:  Sun Aug 18 09:33:26 2019
  Analysis ended on:  Sun Aug 18 09:33:27 2019
  Total elapsed time: 00:00:01