
  EPA STORM WATER MANAGEMENT MODEL - VERSION 5.1 (Build 5.2.0.dev5)
  --------------------------------------------------------------

  
  *********************************************************
  NOTE: The summary statistics displayed in this report are
  based on results found at every computational time step,  
  not just on results from each reporting time step.
  *********************************************************
  
  ****************
  Analysis Options
  ****************
  Flow Units ............... MLD
  Process Models:
    Rainfall/Runoff ........ YES
    RDII ................... NO
    Snowmelt ............... NO
    Groundwater ............ NO
    Flow Routing ........... YES
    Ponding Allowed ........ NO
    Water Quality .......... YES
  Infiltration Method ...... GREEN_AMPT
  Flow Routing Method ...... DYNWAVE
  Surcharge Method ......... EXTRAN
  Starting Date ............ 08/28/2015 08:00:00
  Ending Date .............. 08/28/2015 11:50:00
  Antecedent Dry Days ...... 4.0
  Report Time Step ......... 00:01:00
  Wet Time Step ............ 00:01:00
  Dry Time Step ............ 00:01:00
  Routing Time Step ........ 5.00 sec
  Variable Time Step ....... YES
  Maximum Trials ........... 8
  Number of Threads ........ 1
  Head Tolerance ........... 0.001500 m
  
  
  **************************        Volume         Depth
  Runoff Quantity Continuity     hectare-m            mm
  **************************     ---------       -------
  Total Precipitation ......         0.997        16.124
  Evaporation Loss .........         0.000         0.000
  Infiltration Loss ........         0.460         7.432
  Surface Runoff ...........         0.203         3.280
  Final Storage ............         0.335         5.413
  Continuity Error (%) .....        -0.007
  
  
  **************************           COD         NH3-N            TN            TP            SS
  Runoff Quality Continuity             kg            kg            kg            kg            kg
  **************************    ----------    ----------    ----------    ----------    ----------
  Initial Buildup ..........      2504.640         0.000         0.000         0.000         0.000
  Surface Buildup ..........        19.761         0.000         0.000         0.000         0.000
  Wet Deposition ...........         0.000         0.000         0.000         0.000         0.000
  Sweeping Removal .........         0.000         0.000         0.000         0.000         0.000
  Infiltration Loss ........        69.280         0.000         0.000         0.000         0.000
  BMP Removal ..............         0.000         0.000         0.000         0.000         0.000
  Surface Runoff ...........       277.961         0.000         0.000         0.000         0.000
  Remaining Buildup ........      2175.958         0.000         0.000         0.000         0.000
  Continuity Error (%) .....         0.048         0.000         0.000         0.000         0.000
  
  
  **************************        Volume        Volume
  Flow Routing Continuity        hectare-m      10^6 ltr
  **************************     ---------     ---------
  Dry Weather Inflow .......         0.000         0.000
  Wet Weather Inflow .......         0.202         2.024
  Groundwater Inflow .......         0.000         0.000
  RDII Inflow ..............         0.000         0.000
  External Inflow ..........         0.082         0.822
  External Outflow .........         0.134         1.343
  Flooding Loss ............         0.084         0.843
  Evaporation Loss .........         0.000         0.000
  Exfiltration Loss ........         0.000         0.000
  Initial Stored Volume ....         0.000         0.000
  Final Stored Volume ......         0.062         0.620
  Continuity Error (%) .....         1.397
  
  
  **************************           COD         NH3-N            TN            TP            SS
  Quality Routing Continuity            kg            kg            kg            kg            kg
  **************************    ----------    ----------    ----------    ----------    ----------
  Dry Weather Inflow .......         0.000         0.000         0.000         0.000         0.000
  Wet Weather Inflow .......       277.281         0.000         0.000         0.000         0.000
  Groundwater Inflow .......         0.000         0.000         0.000         0.000         0.000
  RDII Inflow ..............         0.000         0.000         0.000         0.000         0.000
  External Inflow ..........       137.269         0.000         0.000         0.000         0.000
  External Outflow .........       183.680         0.000         0.000         0.000         0.000
  Flooding Loss ............       115.789         0.000         0.000         0.000         0.000
  Exfiltration Loss ........         0.000         0.000         0.000         0.000         0.000
  Mass Reacted .............         0.000         0.000         0.000         0.000         0.000
  Initial Stored Mass ......         0.000         0.000         0.000         0.000         0.000
  Final Stored Mass ........       107.770         0.000         0.000         0.000         0.000
  Continuity Error (%) .....         1.764         0.000         0.000         0.000         0.000
  
  
  *************************
  Highest Continuity Errors
  *************************
  Node WS02006230 (9.05%)
  Node WS02006229 (5.99%)
  Node WS02006115 (5.65%)
  Node WS02006231 (5.26%)
  Node WS02006116 (5.20%)
  
  
  ***************************
  Time-Step Critical Elements
  ***************************
  Link 8 (84.50%)
  Link WSL2448 (12.76%)
  
  
  ********************************
  Highest Flow Instability Indexes
  ********************************
  Link WSL2302 (3)
  Link WSL2301 (3)
  Link WSL2297 (3)
  Link WSL2296 (3)
  Link WSL2298 (2)
  
  
  *************************
  Routing Time Step Summary
  *************************
  Minimum Time Step           :     0.50 sec
  Average Time Step           :     1.22 sec
  Maximum Time Step           :     5.00 sec
  Percent in Steady State     :     0.00
  Average Iterations per Step :     2.06
  Percent Not Converging      :     0.27
  
  
  ***************************
  Subcatchment Runoff Summary
  ***************************
  
  ------------------------------------------------------------------------------------------------------------------------------
                            Total      Total      Total      Total     Imperv       Perv      Total       Total     Peak  Runoff
                           Precip      Runon       Evap      Infil     Runoff     Runoff     Runoff      Runoff   Runoff   Coeff
  Subcatchment                 mm         mm         mm         mm         mm         mm         mm    10^6 ltr      MLD
  ------------------------------------------------------------------------------------------------------------------------------
  1                         16.12      16.24       0.00       8.66       7.64       6.14      13.78        0.17     3.34   0.426
  2                         16.12       0.00       0.00       7.10       3.81       1.16       4.97        0.17     3.52   0.308
  3                         16.12       0.00       0.00       7.13       3.75       0.97       4.72        0.24     5.00   0.293
  35                        16.12       0.00       0.00       7.09       3.82       1.21       5.03        0.15     3.21   0.312
  36                        16.12       9.67       0.00       8.36       5.87       2.33       8.21        0.48     9.62   0.318
  40                        16.12       2.64       0.00       7.48       4.38       1.50       5.89        0.23     4.76   0.314
  41                        16.12       0.00       0.00       7.05       3.87       1.45       5.32        0.10     2.21   0.330
  42                        16.12       0.00       0.00       7.07       3.85       1.36       5.22        0.12     2.53   0.324
  43                        16.12       0.00       0.00       6.84       3.97       2.67       6.64        0.02     0.55   0.412
  44                        16.12     136.68       0.00      13.56      37.21      74.96     112.18        0.42     7.98   0.734
  45                        16.12       0.00       0.00       6.99       3.92       1.86       5.78        0.06     1.30   0.358
  46                        16.12       8.15       0.00       8.07       5.73       3.14       8.86        0.19     3.90   0.365
  47                        16.12       0.00       0.00       6.99       3.92       1.81       5.72        0.06     1.39   0.355
  48                        16.12       4.01       0.00       7.56       4.82       2.49       7.30        0.12     2.44   0.363
  55                        16.12       5.99       0.00       7.68       5.34       3.75       9.09        0.08     1.62   0.411
  56                        16.12       8.96       0.00       8.14       5.91       3.32       9.23        0.20     4.04   0.368
  57                        16.12       0.00       0.00       7.13       3.75       0.98       4.73        0.24     4.91   0.294
  59                        16.12       0.00       0.00       6.96       3.93       2.00       5.93        0.05     1.10   0.368
  60                        16.12      13.04       0.00       8.28       7.07       7.07      14.14        0.07     1.56   0.485
  61                        16.12       0.00       0.00       7.19       3.49       0.55       4.04        0.73    14.68   0.250
  64                        16.12       0.00       0.00       7.00       3.91       1.75       5.66        0.07     1.48   0.351
  
  
  ****************************
  Subcatchment Washoff Summary
  ****************************
  
  ------------------------------------------------------------------------------------------
                                 COD         NH3-N            TN            TP            SS
  Subcatchment                    kg            kg            kg            kg            kg
  ------------------------------------------------------------------------------------------
  1                           21.637         0.000         0.000         0.000         0.000
  2                            0.000         0.000         0.000         0.000         0.000
  3                            0.000         0.000         0.000         0.000         0.000
  35                          21.860         0.000         0.000         0.000         0.000
  36                         129.782         0.000         0.000         0.000         0.000
  40                          41.408         0.000         0.000         0.000         0.000
  41                          15.452         0.000         0.000         0.000         0.000
  42                          17.515         0.000         0.000         0.000         0.000
  43                           4.269         0.000         0.000         0.000         0.000
  44                         116.551         0.000         0.000         0.000         0.000
  45                           9.493         0.000         0.000         0.000         0.000
  46                          50.935         0.000         0.000         0.000         0.000
  47                          10.053         0.000         0.000         0.000         0.000
  48                          24.860         0.000         0.000         0.000         0.000
  55                          19.128         0.000         0.000         0.000         0.000
  56                          55.629         0.000         0.000         0.000         0.000
  57                          32.378         0.000         0.000         0.000         0.000
  59                           8.124         0.000         0.000         0.000         0.000
  60                          22.544         0.000         0.000         0.000         0.000
  61                          88.266         0.000         0.000         0.000         0.000
  64                          10.672         0.000         0.000         0.000         0.000
  ------------------------------------------------------------------------------------------
  System                     700.556         0.000         0.000         0.000         0.000
  
  
  ******************
  Node Depth Summary
  ******************
  
  ---------------------------------------------------------------------------------
                                 Average  Maximum  Maximum  Time of Max    Reported
                                   Depth    Depth      HGL   Occurrence   Max Depth
  Node                 Type       Meters   Meters   Meters  days hr:min      Meters
  ---------------------------------------------------------------------------------
  WS01000070           JUNCTION     0.00     0.00     0.00     0  00:00        0.00
  WS01000323           JUNCTION     0.00     0.00     0.00     0  00:00        0.00
  WS01000533           JUNCTION     0.00     0.00     6.86     0  00:00        0.00
  WS01005172           JUNCTION     0.00     0.00     0.00     0  00:00        0.00
  WS01005181           JUNCTION     0.00     0.00     0.00     0  00:00        0.00
  WS01009841           JUNCTION     0.00     0.00     0.00     0  00:00        0.00
  WS02000078           JUNCTION     0.00     0.00     0.00     0  00:00        0.00
  WS02000112           JUNCTION     0.00     0.00     0.00     0  00:00        0.00
  WS02000136           JUNCTION     0.00     0.00     0.00     0  00:00        0.00
  WS02004053           JUNCTION     0.00     0.00     0.00     0  00:00        0.00
  WS02004401           JUNCTION     2.09     2.31     8.31     0  03:01        2.31
  WS02005192           JUNCTION     0.37     0.45     8.32     0  03:01        0.45
  WS02005193           JUNCTION     0.41     0.50     8.32     0  03:01        0.50
  WS02005196           JUNCTION     0.39     0.47     8.32     0  03:01        0.47
  WS02006109           JUNCTION     1.49     1.71     8.33     0  03:00        1.71
  WS02006110           JUNCTION     1.51     1.73     8.33     0  03:00        1.72
  WS02006111           JUNCTION     1.53     1.74     8.32     0  03:00        1.74
  WS02006112           JUNCTION     1.97     2.20     8.32     0  03:00        2.20
  WS02006113           JUNCTION     1.52     1.74     8.33     0  03:00        1.73
  WS02006115           JUNCTION     1.99     2.22     8.32     0  03:00        2.21
  WS02006116           JUNCTION     2.05     2.27     8.31     0  03:01        2.27
  WS02006183           JUNCTION     0.00     0.00     0.00     0  00:00        0.00
  WS02006228           JUNCTION     1.47     1.68     8.33     0  03:00        1.68
  WS02006229           JUNCTION     1.43     1.64     8.33     0  03:00        1.64
  WS02006230           JUNCTION     1.37     1.58     8.33     0  03:01        1.58
  WS02006231           JUNCTION     1.23     1.43     8.33     0  03:01        1.43
  WS02006232           JUNCTION     1.11     1.30     8.33     0  03:00        1.30
  WS02006234           JUNCTION     0.99     1.17     8.33     0  03:00        1.16
  WS02006235           JUNCTION     0.99     1.16     8.33     0  03:00        1.15
  WS02006238           JUNCTION     0.98     1.15     8.33     0  03:00        1.14
  WS02006239           JUNCTION     0.95     1.11     8.32     0  03:00        1.11
  WS02006242           JUNCTION     0.87     1.02     8.32     0  03:00        1.02
  WS02006240           JUNCTION     0.88     1.03     8.32     0  03:00        1.03
  WS02006243           JUNCTION     0.76     0.90     8.32     0  03:00        0.90
  WS02006245           JUNCTION     0.70     0.83     8.32     0  03:00        0.83
  WS02006247           JUNCTION     0.68     0.81     8.32     0  03:00        0.81
  WS02006248           JUNCTION     0.61     0.73     8.32     0  03:01        0.73
  WS02006249           JUNCTION     0.60     0.72     8.32     0  03:01        0.72
  WS02006251           JUNCTION     0.54     0.65     8.32     0  03:01        0.65
  WS02006253           JUNCTION     0.42     0.52     8.32     0  03:01        0.52
  WS02618401           JUNCTION     0.00     0.00     0.00     0  00:00        0.00
  WSA1649              JUNCTION     0.00     0.00     0.00     0  00:00        0.00
  outfall-5            OUTFALL      0.08     0.12     7.79     0  03:01        0.12
  outfall-14           OUTFALL      0.07     0.11     7.77     0  03:01        0.11
  outfall-16           OUTFALL      0.00     0.00     8.39     0  00:00        0.00
  CC-storage           STORAGE      5.28     5.63     8.81     0  01:37        5.63
  
  
  *******************
  Node Inflow Summary
  *******************
  
  -------------------------------------------------------------------------------------------------
                                  Maximum  Maximum                  Lateral       Total        Flow
                                  Lateral    Total  Time of Max      Inflow      Inflow     Balance
                                   Inflow   Inflow   Occurrence      Volume      Volume       Error
  Node                 Type           MLD      MLD  days hr:min    10^6 ltr    10^6 ltr     Percent
  -------------------------------------------------------------------------------------------------
  WS01000070           JUNCTION      0.00     0.00     0  00:00           0           0       0.000 ltr
  WS01000323           JUNCTION      0.00     0.00     0  00:00           0           0       0.000 ltr
  WS01000533           JUNCTION      0.00     0.00     0  00:00           0           0       0.000 ltr
  WS01005172           JUNCTION      0.00     0.00     0  00:00           0           0       0.000 ltr
  WS01005181           JUNCTION      0.00     0.00     0  00:00           0           0       0.000 ltr
  WS01009841           JUNCTION      0.00     0.00     0  00:00           0           0       0.000 ltr
  WS02000078           JUNCTION      0.00     0.00     0  00:00           0           0       0.000 ltr
  WS02000112           JUNCTION      0.00     0.00     0  00:00           0           0       0.000 ltr
  WS02000136           JUNCTION      0.00     0.00     0  00:00           0           0       0.000 ltr
  WS02004053           JUNCTION      0.00     0.00     0  00:00           0           0       0.000 ltr
  WS02004401           JUNCTION      0.05    13.22     0  03:01      0.0086       0.635       4.624
  WS02005192           JUNCTION      5.00     5.00     0  03:01       0.253       0.253       0.937
  WS02005193           JUNCTION      0.09     5.18     0  03:01       0.014        0.28       2.482
  WS02005196           JUNCTION      0.12     5.10     0  03:01      0.0183       0.269       2.334
  WS02006109           JUNCTION      0.08     7.48     0  03:01      0.0129       0.506       5.033
  WS02006110           JUNCTION      0.08     7.55     0  03:01      0.0126       0.496       5.218
  WS02006111           JUNCTION      0.24    12.74     0  03:01      0.0352       0.682       3.123
  WS02006112           JUNCTION      0.18    12.89     0  03:01      0.0263       0.686       5.023
  WS02006113           JUNCTION      5.14    12.55     0  03:01       0.266       0.704       3.489
  WS02006115           JUNCTION      0.08    12.97     0  03:01      0.0129       0.669       5.993
  WS02006116           JUNCTION      0.24    13.17     0  03:01      0.0347       0.669       5.481
  WS02006183           JUNCTION      0.00     0.00     0  00:00           0           0       0.000 ltr
  WS02006228           JUNCTION      8.13     8.13     0  03:03       0.441       0.598       3.121
  WS02006229           JUNCTION      0.13     4.91     0  02:00      0.0193       0.268       6.370
  WS02006230           JUNCTION      0.07     4.89     0  02:00      0.0111       0.278       9.949
  WS02006231           JUNCTION      0.13     4.55     0  02:01      0.0197       0.286       5.555
  WS02006232           JUNCTION      3.59     6.01     0  02:01        0.18       0.444       3.607
  WS02006234           JUNCTION      0.14     6.02     0  02:01      0.0208       0.436       3.273
  WS02006235           JUNCTION      0.14     6.05     0  02:01      0.0215       0.433       1.854
  WS02006238           JUNCTION      0.15     5.87     0  02:01      0.0226       0.433       2.373
  WS02006239           JUNCTION      0.11     5.84     0  02:01      0.0167       0.432       3.644
  WS02006242           JUNCTION      0.08     5.91     0  02:01      0.0124       0.432       4.431
  WS02006240           JUNCTION      0.06     6.05     0  01:55     0.00952       0.429       3.967
  WS02006243           JUNCTION      0.17     5.97     0  02:01      0.0259       0.439       4.081
  WS02006245           JUNCTION      0.07     5.79     0  02:00      0.0109       0.429       3.176
  WS02006247           JUNCTION      3.47     8.92     0  03:01        0.19       0.585       1.977
  WS02006248           JUNCTION      0.12    16.05     0  03:01      0.0185       0.861       1.223
  WS02006249           JUNCTION      0.19     7.11     0  03:01      0.0275       0.406       3.603
  WS02006251           JUNCTION      1.68     6.93     0  03:01      0.0847       0.382       3.776
  WS02006253           JUNCTION      0.11     5.28     0  03:01      0.0166       0.296       2.393
  WS02618401           JUNCTION      0.00     0.00     0  00:00           0           0       0.000 ltr
  WSA1649              JUNCTION      0.00     0.00     0  00:00           0           0       0.000 ltr
  outfall-5            OUTFALL       0.00    16.05     0  03:01           0       0.743       0.000
  outfall-14           OUTFALL       0.00    13.22     0  03:01           0         0.6       0.000
  outfall-16           OUTFALL       0.00     0.00     0  00:00           0           0       0.000 ltr
  CC-storage           STORAGE      16.14    16.14     0  03:01           1           1      -0.001
  
  
  **********************
  Node Surcharge Summary
  **********************
  
  Surcharging occurs when water rises above the top of the highest conduit.
  ---------------------------------------------------------------------
                                               Max. Height   Min. Depth
                                   Hours       Above Crown    Below Rim
  Node                 Type      Surcharged         Meters       Meters
  ---------------------------------------------------------------------
  WS01000070           JUNCTION        3.83          0.000        0.000
  WS01000323           JUNCTION        3.83          0.000        0.000
  WS01000533           JUNCTION        3.83          0.000        2.147
  WS01005172           JUNCTION        3.83          0.000        0.000
  WS01005181           JUNCTION        3.83          0.000        0.000
  WS01009841           JUNCTION        3.83          0.000        0.000
  WS02000078           JUNCTION        3.83          0.000        0.000
  WS02000112           JUNCTION        3.83          0.000        0.000
  WS02000136           JUNCTION        3.83          0.000        0.000
  WS02004053           JUNCTION        3.83          0.000        0.000
  WS02006109           JUNCTION        2.18          0.908        0.930
  WS02006110           JUNCTION        2.18          0.927        0.918
  WS02006111           JUNCTION        2.20          0.941        0.936
  WS02006112           JUNCTION        2.42          1.198        0.485
  WS02006113           JUNCTION        2.20          0.935        0.998
  WS02006115           JUNCTION        2.45          1.215        1.084
  WS02006116           JUNCTION        2.53          1.274        1.076
  WS02006183           JUNCTION        3.83          0.000        0.000
  WS02006228           JUNCTION        2.16          0.879        1.352
  WS02006229           JUNCTION        2.14          0.838        1.616
  WS02006231           JUNCTION        2.07          0.726        0.817
  WS02006232           JUNCTION        1.99          0.597        0.892
  WS02006234           JUNCTION        1.92          0.466        0.791
  WS02006235           JUNCTION        1.92          0.456        0.838
  WS02006238           JUNCTION        1.91          0.446        0.988
  WS02006239           JUNCTION        1.89          0.415        0.914
  WS02006242           JUNCTION        1.84          0.322        0.527
  WS02006240           JUNCTION        1.86          0.333        1.070
  WS02006243           JUNCTION        1.79          0.201        0.579
  WS02006245           JUNCTION        1.77          0.129        0.726
  WS02006247           JUNCTION        1.76          0.108        0.652
  WS02006249           JUNCTION        0.38          0.016        0.372
  WS02618401           JUNCTION        3.83          0.000        0.000
  WSA1649              JUNCTION        3.83          0.000        0.000
  
  
  *********************
  Node Flooding Summary
  *********************
  
  Flooding refers to all water that overflows a node, whether it ponds or not.
  --------------------------------------------------------------------------
                                                             Total   Maximum
                                 Maximum   Time of Max       Flood    Ponded
                        Hours       Rate    Occurrence      Volume     Depth
  Node                 Flooded       MLD   days hr:min    10^6 ltr    Meters
  --------------------------------------------------------------------------
  CC-storage              2.21     16.14      0  03:01       0.843     0.000
  
  
  **********************
  Storage Volume Summary
  **********************
  
  --------------------------------------------------------------------------------------------------
                         Average     Avg  Evap Exfil       Maximum     Max    Time of Max    Maximum
                          Volume    Pcnt  Pcnt  Pcnt        Volume    Pcnt     Occurrence    Outflow
  Storage Unit           1000 m3    Full  Loss  Loss       1000 m3    Full    days hr:min        MLD
  --------------------------------------------------------------------------------------------------
  CC-storage               0.149      94     0     0         0.159     100       0  01:37       0.00
  
  
  ***********************
  Outfall Loading Summary
  ***********************
  
  ---------------------------------------------------------------------------------------------------------------------------------
                         Flow       Avg       Max       Total         Total         Total         Total         Total         Total
                         Freq      Flow      Flow      Volume           COD         NH3-N            TN            TP            SS
  Outfall Node           Pcnt       MLD       MLD    10^6 ltr            kg            kg            kg            kg            kg
  ---------------------------------------------------------------------------------------------------------------------------------
  outfall-5             84.54     10.33     16.05       0.743       105.802         0.000         0.000         0.000         0.000
  outfall-14            84.49      8.37     13.22       0.600        77.888         0.000         0.000         0.000         0.000
  outfall-16             0.00      0.00      0.00       0.000         0.000         0.000         0.000         0.000         0.000
  ---------------------------------------------------------------------------------------------------------------------------------
  System                56.34     18.71     29.26       1.343       183.690         0.000         0.000         0.000         0.000
  
  
  ********************
  Link Flow Summary
  ********************
  
  -----------------------------------------------------------------------------
                                 Maximum  Time of Max   Maximum    Max/    Max/
                                  |Flow|   Occurrence   |Veloc|    Full    Full
  Link                 Type          MLD  days hr:min     m/sec    Flow   Depth
  -----------------------------------------------------------------------------
  WSL2038              CONDUIT      5.00     0  03:01      0.52    0.25    0.77
  WSL2039              CONDUIT      5.19     0  03:01      0.79    0.27    0.85
  WSL2041              CONDUIT      5.10     0  03:01      0.58    0.25    0.81
  WSL2294              CONDUIT      7.48     0  03:01      0.43    0.25    1.00
  WSL2295              CONDUIT      7.55     0  03:01      0.50    0.34    1.00
  WSL2296              CONDUIT     12.75     0  03:01      0.63    0.07    1.00
  WSL2297              CONDUIT     12.90     0  03:01      0.34    0.25    1.00
  WSL2298              CONDUIT     12.55     0  03:01      0.87    0.58    1.00
  WSL2301              CONDUIT     12.98     0  03:01      0.29    0.12    1.00
  WSL2302              CONDUIT     13.17     0  03:01      0.23    0.16    1.00
  WSL2441              CONDUIT      7.40     0  03:01      0.44    0.19    1.00
  WSL2442              CONDUIT      4.82     0  02:00      0.63    0.12    1.00
  WSL2443              CONDUIT      4.44     0  02:01      0.73    0.07    1.00
  WSL2444              CONDUIT      4.57     0  02:01      0.89    0.07    1.00
  WSL2446              CONDUIT      5.90     0  02:01      0.85    0.10    1.00
  WSL2447              CONDUIT      5.92     0  02:01      0.74    0.30    1.00
  WSL2448              CONDUIT      5.74     0  02:01      0.60    0.16    1.00
  WSL2449              CONDUIT      5.74     0  02:01      0.58    0.20    1.00
  WSL2450              CONDUIT      5.99     0  01:55      0.66    0.12    1.00
  WSL2451              CONDUIT      5.84     0  02:01      0.64    0.38    1.00
  WSL2452              CONDUIT      5.82     0  02:01      0.66    0.11    1.00
  WSL2454              CONDUIT      5.73     0  02:00      0.81    0.13    1.00
  WSL2478              CONDUIT      5.75     0  02:05      0.69    0.20    1.00
  WSL2479              CONDUIT      8.93     0  03:01      0.62    0.17    1.00
  WSL2480              CONDUIT      7.13     0  03:02      0.67    0.33    1.00
  WSL2482              CONDUIT      6.96     0  03:01      0.59    0.18    0.96
  WSL2484              CONDUIT      5.32     0  03:01      0.69    0.07    0.83
  WSL2493              CONDUIT      4.79     0  02:00      0.51    0.08    1.00
  8                    CONDUIT     16.05     0  03:01      5.54    0.21    0.31
  19                   CONDUIT      0.00     0  00:00      0.00    0.00    0.00
  17                   CONDUIT     13.22     0  03:01      5.30    0.17    0.28
  CC-Pump-1            PUMP         0.00     0  00:00              0.00
  CC-Pump-2            PUMP         0.00     0  00:00              0.00
  
  
  ***************************
  Flow Classification Summary
  ***************************
  
  -------------------------------------------------------------------------------------
                      Adjusted    ---------- Fraction of Time in Flow Class ---------- 
                       /Actual         Up    Down  Sub   Sup   Up    Down  Norm  Inlet 
  Conduit               Length    Dry  Dry   Dry   Crit  Crit  Crit  Crit  Ltd   Ctrl  
  -------------------------------------------------------------------------------------
  WSL2038                 1.00   0.00  0.00  0.00  1.00  0.00  0.00  0.00  0.01  0.00
  WSL2039                 1.00   0.00  0.00  0.00  1.00  0.00  0.00  0.00  0.00  0.00
  WSL2041                 1.00   0.00  0.00  0.00  1.00  0.00  0.00  0.00  0.31  0.00
  WSL2294                 1.00   0.00  0.00  0.00  1.00  0.00  0.00  0.00  0.00  0.00
  WSL2295                 1.00   0.00  0.00  0.00  1.00  0.00  0.00  0.00  0.00  0.00
  WSL2296                 1.00   0.00  0.00  0.00  1.00  0.00  0.00  0.00  0.17  0.00
  WSL2297                 1.00   0.00  0.00  0.00  1.00  0.00  0.00  0.00  0.00  0.00
  WSL2298                 1.00   0.00  0.00  0.00  0.98  0.02  0.00  0.00  0.00  0.00
  WSL2301                 1.00   0.00  0.00  0.00  1.00  0.00  0.00  0.00  0.04  0.00
  WSL2302                 1.00   0.00  0.00  0.00  1.00  0.00  0.00  0.00  0.01  0.00
  WSL2441                 1.00   0.00  0.00  0.00  1.00  0.00  0.00  0.00  0.00  0.00
  WSL2442                 1.00   0.00  0.00  0.00  1.00  0.00  0.00  0.00  0.17  0.00
  WSL2443                 1.00   0.00  0.00  0.00  1.00  0.00  0.00  0.00  0.31  0.00
  WSL2444                 1.00   0.00  0.00  0.00  0.92  0.08  0.00  0.00  0.24  0.00
  WSL2446                 1.00   0.00  0.00  0.00  0.92  0.08  0.00  0.00  0.03  0.00
  WSL2447                 1.00   0.00  0.00  0.00  1.00  0.00  0.00  0.00  0.00  0.00
  WSL2448                 1.00   0.00  0.00  0.00  1.00  0.00  0.00  0.00  0.00  0.00
  WSL2449                 1.00   0.00  0.00  0.00  1.00  0.00  0.00  0.00  0.03  0.00
  WSL2450                 1.00   0.00  0.00  0.00  1.00  0.00  0.00  0.00  0.43  0.00
  WSL2451                 1.00   0.00  0.00  0.00  1.00  0.00  0.00  0.00  0.00  0.00
  WSL2452                 1.00   0.00  0.00  0.00  1.00  0.00  0.00  0.00  0.44  0.00
  WSL2454                 1.00   0.00  0.00  0.00  1.00  0.00  0.00  0.00  0.02  0.00
  WSL2478                 1.00   0.00  0.00  0.00  1.00  0.00  0.00  0.00  0.00  0.00
  WSL2479                 1.00   0.00  0.00  0.00  1.00  0.00  0.00  0.00  0.48  0.00
  WSL2480                 1.00   0.00  0.00  0.00  1.00  0.00  0.00  0.00  0.00  0.00
  WSL2482                 1.00   0.00  0.00  0.00  1.00  0.00  0.00  0.00  0.49  0.00
  WSL2484                 1.00   0.00  0.00  0.00  1.00  0.00  0.00  0.00  0.49  0.00
  WSL2493                 1.00   0.00  0.00  0.00  1.00  0.00  0.00  0.00  0.05  0.00
  8                       1.00   0.15  0.00  0.00  0.00  0.85  0.00  0.00  0.01  0.00
  19                      1.00   1.00  0.00  0.00  0.00  0.00  0.00  0.00  0.00  0.00
  17                      1.00   0.16  0.00  0.00  0.00  0.84  0.00  0.00  0.00  0.00
  
  
  *************************
  Conduit Surcharge Summary
  *************************
  
  ----------------------------------------------------------------------------
                                                           Hours        Hours 
                         --------- Hours Full --------   Above Full   Capacity
  Conduit                Both Ends  Upstream  Dnstream   Normal Flow   Limited
  ----------------------------------------------------------------------------
  WSL2294                     2.18      2.18      2.18      0.01         0.01
  WSL2295                     2.18      2.18      2.20      0.01         0.01
  WSL2296                     2.20      2.20      2.74      0.01         0.01
  WSL2297                     2.42      2.42      2.45      0.01         0.01
  WSL2298                     2.20      2.20      2.20      0.01         0.01
  WSL2301                     2.45      2.45      2.53      0.01         0.01
  WSL2302                     2.53      2.53      2.60      0.01         0.01
  WSL2441                     2.16      2.16      2.18      0.01         0.01
  WSL2442                     2.16      2.16      2.19      0.01         0.01
  WSL2443                     2.07      2.07      2.16      0.01         0.01
  WSL2444                     1.99      1.99      2.07      0.01         0.01
  WSL2446                     1.92      1.92      1.99      0.01         0.01
  WSL2447                     1.92      1.92      1.92      0.01         0.01
  WSL2448                     1.91      1.91      1.92      0.01         0.01
  WSL2449                     1.89      1.89      1.91      0.01         0.01
  WSL2450                     1.85      1.85      1.89      0.01         0.01
  WSL2451                     1.84      1.84      1.86      0.01         0.01
  WSL2452                     1.79      1.79      1.84      0.01         0.01
  WSL2454                     1.77      1.77      1.79      0.01         0.01
  WSL2478                     1.76      1.76      1.77      0.01         0.01
  WSL2479                     0.71      0.71      1.76      0.01         0.01
  WSL2480                     0.38      0.38      0.71      0.01         0.01
  WSL2482                     0.01      0.01      0.38      0.01         0.01
  WSL2493                     2.14      2.14      2.16      0.01         0.01
  
  
  ***************
  Pumping Summary
  ***************
  
  ---------------------------------------------------------------------------------------------------------
                                                  Min       Avg       Max     Total     Power    % Time Off
                        Percent   Number of      Flow      Flow      Flow    Volume     Usage    Pump Curve
  Pump                 Utilized   Start-Ups       MLD       MLD       MLD  10^6 ltr     Kw-hr    Low   High
  ---------------------------------------------------------------------------------------------------------
  CC-Pump-1                0.00           0      0.00      0.00      0.00     0.000      0.00    0.0    0.0
  CC-Pump-2                0.00           0      0.00      0.00      0.00     0.000      0.00    0.0    0.0
  
  
  ***************************
  Link Pollutant Load Summary
  ***************************
  
  ------------------------------------------------------------------------------------------
                                 COD         NH3-N            TN            TP            SS
  Link                            kg            kg            kg            kg            kg
  ------------------------------------------------------------------------------------------
  WSL2038                     35.155         0.000         0.000         0.000         0.000
  WSL2039                     40.122         0.000         0.000         0.000         0.000
  WSL2041                     37.836         0.000         0.000         0.000         0.000
  WSL2294                    101.667         0.000         0.000         0.000         0.000
  WSL2295                     93.022         0.000         0.000         0.000         0.000
  WSL2296                     91.567         0.000         0.000         0.000         0.000
  WSL2297                     88.039         0.000         0.000         0.000         0.000
  WSL2298                     89.378         0.000         0.000         0.000         0.000
  WSL2301                     84.571         0.000         0.000         0.000         0.000
  WSL2302                     83.273         0.000         0.000         0.000         0.000
  WSL2441                    109.399         0.000         0.000         0.000         0.000
  WSL2442                     53.582         0.000         0.000         0.000         0.000
  WSL2443                     50.865         0.000         0.000         0.000         0.000
  WSL2444                     49.492         0.000         0.000         0.000         0.000
  WSL2446                     48.614         0.000         0.000         0.000         0.000
  WSL2447                     47.958         0.000         0.000         0.000         0.000
  WSL2448                     47.772         0.000         0.000         0.000         0.000
  WSL2449                     47.093         0.000         0.000         0.000         0.000
  WSL2450                     46.460         0.000         0.000         0.000         0.000
  WSL2451                     46.014         0.000         0.000         0.000         0.000
  WSL2452                     46.079         0.000         0.000         0.000         0.000
  WSL2454                     45.765         0.000         0.000         0.000         0.000
  WSL2478                     45.601         0.000         0.000         0.000         0.000
  WSL2479                     65.717         0.000         0.000         0.000         0.000
  WSL2480                     66.186         0.000         0.000         0.000         0.000
  WSL2482                     62.492         0.000         0.000         0.000         0.000
  WSL2484                     43.126         0.000         0.000         0.000         0.000
  WSL2493                     54.307         0.000         0.000         0.000         0.000
  8                          105.802         0.000         0.000         0.000         0.000
  19                           0.000         0.000         0.000         0.000         0.000
  17                          77.888         0.000         0.000         0.000         0.000
  CC-Pump-1                    0.000         0.000         0.000         0.000         0.000
  CC-Pump-2                    0.000         0.000         0.000         0.000         0.000
  

  Analysis begun on:  Sun Aug 18 09:32:59 2019
  Analysis ended on:  Sun Aug 18 09:32:59 2019
  Total elapsed time: < 1 sec