
  EPA STORM WATER MANAGEMENT MODEL - VERSION 5.1 (Build 5.2.0.dev5)
  --------------------------------------------------------------

  
  *********************************************************
  NOTE: The summary statistics displayed in this report are
  based on results found at every computational time step,  
  not just on results from each reporting time step.
  *********************************************************
  
  ****************
  Analysis Options
  ****************
  Flow Units ............... MLD
  Process Models:
    Rainfall/Runoff ........ YES
    RDII ................... NO
    Snowmelt ............... NO
    Groundwater ............ NO
    Flow Routing ........... YES
    Ponding Allowed ........ NO
    Water Quality .......... YES
  Infiltration Method ...... GREEN_AMPT
  Flow Routing Method ...... DYNWAVE
  Surcharge Method ......... EXTRAN
  Starting Date ............ 08/28/2015 08:00:00
  Ending Date .............. 08/28/2015 11:50:00
  Antecedent Dry Days ...... 4.0
  Report Time Step ......... 00:01:00
  Wet Time Step ............ 00:01:00
  Dry Time Step ............ 00:01:00
  Routing Time Step ........ 5.00 sec
  Variable Time Step ....... YES
  Maximum Trials ........... 8
  Number of Threads ........ 1
  Head Tolerance ........... 0.001500 m
  
  
  **************************        Volume         Depth
  Runoff Quantity Continuity     hectare-m            mm
  **************************     ---------       -------
  Total Precipitation ......         2.951        47.700
  Evaporation Loss .........         0.000         0.000
  Infiltration Loss ........         0.766        12.383
  Surface Runoff ...........         1.059        17.120
  Final Storage ............         1.126        18.199
  Continuity Error (%) .....        -0.005
  
  
  **************************           COD         NH3-N            TN            TP            SS
  Runoff Quality Continuity             kg            kg            kg            kg            kg
  **************************    ----------    ----------    ----------    ----------    ----------
  Initial Buildup ..........      2504.640         0.000         0.000         0.000         0.000
  Surface Buildup ..........        19.140         0.000         0.000         0.000         0.000
  Wet Deposition ...........         0.000         0.000         0.000         0.000         0.000
  Sweeping Removal .........         0.000         0.000         0.000         0.000         0.000
  Infiltration Loss ........       206.460         0.000         0.000         0.000         0.000
  BMP Removal ..............         0.000         0.000         0.000         0.000         0.000
  Surface Runoff ...........      1751.858         0.000         0.000         0.000         0.000
  Remaining Buildup ........       570.275         0.000         0.000         0.000         0.000
  Continuity Error (%) .....        -0.191         0.000         0.000         0.000         0.000
  
  
  **************************        Volume        Volume
  Flow Routing Continuity        hectare-m      10^6 ltr
  **************************     ---------     ---------
  Dry Weather Inflow .......         0.000         0.000
  Wet Weather Inflow .......         1.057        10.565
  Groundwater Inflow .......         0.000         0.000
  RDII Inflow ..............         0.000         0.000
  External Inflow ..........         0.082         0.822
  External Outflow .........         0.743         7.432
  Flooding Loss ............         0.329         3.294
  Evaporation Loss .........         0.000         0.000
  Exfiltration Loss ........         0.000         0.000
  Initial Stored Volume ....         0.000         0.000
  Final Stored Volume ......         0.063         0.626
  Continuity Error (%) .....         0.313
  
  
  **************************           COD         NH3-N            TN            TP            SS
  Quality Routing Continuity            kg            kg            kg            kg            kg
  **************************    ----------    ----------    ----------    ----------    ----------
  Dry Weather Inflow .......         0.000         0.000         0.000         0.000         0.000
  Wet Weather Inflow .......      1750.157         0.000         0.000         0.000         0.000
  Groundwater Inflow .......         0.000         0.000         0.000         0.000         0.000
  RDII Inflow ..............         0.000         0.000         0.000         0.000         0.000
  External Inflow ..........       137.263         0.000         0.000         0.000         0.000
  External Outflow .........      1082.475         0.000         0.000         0.000         0.000
  Flooding Loss ............       752.667         0.000         0.000         0.000         0.000
  Exfiltration Loss ........         0.000         0.000         0.000         0.000         0.000
  Mass Reacted .............         0.000         0.000         0.000         0.000         0.000
  Initial Stored Mass ......         0.000         0.000         0.000         0.000         0.000
  Final Stored Mass ........        43.273         0.000         0.000         0.000         0.000
  Continuity Error (%) .....         0.477         0.000         0.000         0.000         0.000
  
  
  *************************
  Highest Continuity Errors
  *************************
  Node WS02006230 (3.40%)
  Node WS02006229 (2.01%)
  Node WS02006231 (1.84%)
  Node WS02006242 (1.16%)
  Node WS02006115 (1.08%)
  
  
  ***************************
  Time-Step Critical Elements
  ***************************
  Link 8 (91.87%)
  Link WSL2448 (6.52%)
  
  
  ********************************
  Highest Flow Instability Indexes
  ********************************
  Link WSL2302 (2)
  Link WSL2301 (2)
  Link WSL2297 (2)
  Link WSL2296 (1)
  Link WSL2298 (1)
  
  
  *************************
  Routing Time Step Summary
  *************************
  Minimum Time Step           :     0.27 sec
  Average Time Step           :     0.82 sec
  Maximum Time Step           :     5.00 sec
  Percent in Steady State     :     0.00
  Average Iterations per Step :     2.09
  Percent Not Converging      :     0.87
  
  
  ***************************
  Subcatchment Runoff Summary
  ***************************
  
  ------------------------------------------------------------------------------------------------------------------------------
                            Total      Total      Total      Total     Imperv       Perv      Total       Total     Peak  Runoff
                           Precip      Runon       Evap      Infil     Runoff     Runoff     Runoff      Runoff   Runoff   Coeff
  Subcatchment                 mm         mm         mm         mm         mm         mm         mm    10^6 ltr      MLD
  ------------------------------------------------------------------------------------------------------------------------------
  1                         47.70      97.27       0.00      15.23      35.04      62.10      97.14        1.18    18.71   0.670
  2                         47.70       0.00       0.00      11.49      11.69      11.58      23.27        0.78    13.34   0.488
  3                         47.70       0.00       0.00      11.68      11.62      10.14      21.76        1.11    18.82   0.456
  35                        47.70       0.00       0.00      11.43      11.70      11.97      23.67        0.72    12.21   0.496
  36                        47.70      50.90       0.00      14.95      23.37      26.43      49.80        2.94    43.94   0.505
  40                        47.70      12.55       0.00      12.48      14.58      15.37      29.95        1.17    18.47   0.497
  41                        47.70       0.00       0.00      11.20      11.75      13.61      25.36        0.49     8.44   0.532
  42                        47.70       0.00       0.00      11.29      11.74      13.01      24.74        0.56     9.65   0.519
  43                        47.70       0.00       0.00      10.11      11.87      19.72      31.58        0.11     2.11   0.662
  44                        47.70     819.96       0.00      23.67     214.09     551.70     765.79        2.83    45.38   0.883
  45                        47.70       0.00       0.00      10.82      11.81      15.98      27.79        0.29     5.01   0.583
  46                        47.70      42.12       0.00      13.76      21.71      30.97      52.68        1.13    17.00   0.586
  47                        47.70       0.00       0.00      10.87      11.80      15.70      27.50        0.31     5.33   0.577
  48                        47.70      19.27       0.00      12.33      16.35      22.78      39.13        0.62     9.73   0.584
  55                        47.70      28.83       0.00      12.33      18.76      31.21      49.97        0.41     6.63   0.653
  56                        47.70      45.74       0.00      13.94      22.59      32.68      55.27        1.18    17.95   0.591
  57                        47.70       0.00       0.00      11.67      11.62      10.21      21.83        1.09    18.51   0.458
  59                        47.70       0.00       0.00      10.69      11.82      16.73      28.56        0.24     4.24   0.599
  60                        47.70      62.62       0.00      13.29      27.08      53.29      80.37        0.42     6.76   0.729
  61                        47.70       0.00       0.00      12.13      11.28       6.39      17.68        3.18    54.12   0.371
  64                        47.70       0.00       0.00      10.92      11.80      15.41      27.20        0.33     5.68   0.570
  
  
  ****************************
  Subcatchment Washoff Summary
  ****************************
  
  ------------------------------------------------------------------------------------------
                                 COD         NH3-N            TN            TP            SS
  Subcatchment                    kg            kg            kg            kg            kg
  ------------------------------------------------------------------------------------------
  1                          156.729         0.000         0.000         0.000         0.000
  2                            0.000         0.000         0.000         0.000         0.000
  3                            0.000         0.000         0.000         0.000         0.000
  35                         135.828         0.000         0.000         0.000         0.000
  36                         602.414         0.000         0.000         0.000         0.000
  40                         230.047         0.000         0.000         0.000         0.000
  41                          88.389         0.000         0.000         0.000         0.000
  42                         103.334         0.000         0.000         0.000         0.000
  43                          16.938         0.000         0.000         0.000         0.000
  44                         593.421         0.000         0.000         0.000         0.000
  45                          47.703         0.000         0.000         0.000         0.000
  46                         204.662         0.000         0.000         0.000         0.000
  47                          51.327         0.000         0.000         0.000         0.000
  48                         108.469         0.000         0.000         0.000         0.000
  55                          68.313         0.000         0.000         0.000         0.000
  56                         215.852         0.000         0.000         0.000         0.000
  57                         218.724         0.000         0.000         0.000         0.000
  59                          39.058         0.000         0.000         0.000         0.000
  60                          70.151         0.000         0.000         0.000         0.000
  61                         714.671         0.000         0.000         0.000         0.000
  64                          55.391         0.000         0.000         0.000         0.000
  ------------------------------------------------------------------------------------------
  System                    3721.422         0.000         0.000         0.000         0.000
  
  
  ******************
  Node Depth Summary
  ******************
  
  ---------------------------------------------------------------------------------
                                 Average  Maximum  Maximum  Time of Max    Reported
                                   Depth    Depth      HGL   Occurrence   Max Depth
  Node                 Type       Meters   Meters   Meters  days hr:min      Meters
  ---------------------------------------------------------------------------------
  WS01000070           JUNCTION     0.00     0.00     0.00     0  00:00        0.00
  WS01000323           JUNCTION     0.00     0.00     0.00     0  00:00        0.00
  WS01000533           JUNCTION     0.00     0.00     6.86     0  00:00        0.00
  WS01005172           JUNCTION     0.00     0.00     0.00     0  00:00        0.00
  WS01005181           JUNCTION     0.00     0.00     0.00     0  00:00        0.00
  WS01009841           JUNCTION     0.00     0.00     0.00     0  00:00        0.00
  WS02000078           JUNCTION     0.00     0.00     0.00     0  00:00        0.00
  WS02000112           JUNCTION     0.00     0.00     0.00     0  00:00        0.00
  WS02000136           JUNCTION     0.00     0.00     0.00     0  00:00        0.00
  WS02004053           JUNCTION     0.00     0.00     0.00     0  00:00        0.00
  WS02004401           JUNCTION     2.27     2.44     8.44     0  02:43        2.44
  WS02005192           JUNCTION     0.55     1.04     8.91     0  01:39        0.70
  WS02005193           JUNCTION     0.58     0.87     8.69     0  01:39        0.71
  WS02005196           JUNCTION     0.56     1.34     9.19     0  01:39        0.71
  WS02006109           JUNCTION     1.77     2.02     8.64     0  03:00        2.01
  WS02006110           JUNCTION     1.77     2.01     8.61     0  03:00        2.01
  WS02006111           JUNCTION     1.75     1.95     8.53     0  02:42        1.95
  WS02006112           JUNCTION     2.18     2.37     8.49     0  02:42        2.37
  WS02006113           JUNCTION     1.77     1.99     8.58     0  02:42        1.99
  WS02006115           JUNCTION     2.19     2.37     8.47     0  02:42        2.37
  WS02006116           JUNCTION     2.24     2.42     8.46     0  02:43        2.42
  WS02006183           JUNCTION     0.00     0.00     0.00     0  00:00        0.00
  WS02006228           JUNCTION     1.75     2.01     8.66     0  03:00        2.01
  WS02006229           JUNCTION     1.71     1.97     8.66     0  02:49        1.97
  WS02006230           JUNCTION     1.65     1.90     8.65     0  02:48        1.90
  WS02006231           JUNCTION     1.51     1.75     8.65     0  02:48        1.75
  WS02006232           JUNCTION     1.38     1.62     8.65     0  02:47        1.62
  WS02006234           JUNCTION     1.25     1.47     8.63     0  02:47        1.47
  WS02006235           JUNCTION     1.24     1.45     8.62     0  03:00        1.45
  WS02006238           JUNCTION     1.23     1.44     8.62     0  03:00        1.43
  WS02006239           JUNCTION     1.19     1.39     8.60     0  03:00        1.39
  WS02006242           JUNCTION     1.09     1.26     8.56     0  03:00        1.26
  WS02006240           JUNCTION     1.11     1.29     8.58     0  03:00        1.29
  WS02006243           JUNCTION     0.96     1.12     8.54     0  03:00        1.12
  WS02006245           JUNCTION     0.89     1.03     8.52     0  03:00        1.03
  WS02006247           JUNCTION     0.86     1.00     8.51     0  02:50        1.00
  WS02006248           JUNCTION     0.76     0.88     8.47     0  02:41        0.88
  WS02006249           JUNCTION     0.76     0.88     8.48     0  02:36        0.88
  WS02006251           JUNCTION     0.71     1.21     8.88     0  01:39        0.84
  WS02006253           JUNCTION     0.59     0.72     8.52     0  02:29        0.72
  WS02618401           JUNCTION     0.00     0.00     0.00     0  00:00        0.00
  WSA1649              JUNCTION     0.00     0.00     0.00     0  00:00        0.00
  outfall-5            OUTFALL      0.20     0.28     7.94     0  02:41        0.28
  outfall-14           OUTFALL      0.18     0.24     7.90     0  02:43        0.24
  outfall-16           OUTFALL      0.00     0.00     8.39     0  00:00        0.00
  CC-storage           STORAGE      5.41     5.63     8.81     0  01:24        5.63
  
  
  *******************
  Node Inflow Summary
  *******************
  
  -------------------------------------------------------------------------------------------------
                                  Maximum  Maximum                  Lateral       Total        Flow
                                  Lateral    Total  Time of Max      Inflow      Inflow     Balance
                                   Inflow   Inflow   Occurrence      Volume      Volume       Error
  Node                 Type           MLD      MLD  days hr:min    10^6 ltr    10^6 ltr     Percent
  -------------------------------------------------------------------------------------------------
  WS01000070           JUNCTION      0.00     0.00     0  00:00           0           0       0.000 ltr
  WS01000323           JUNCTION      0.00     0.00     0  00:00           0           0       0.000 ltr
  WS01000533           JUNCTION      0.00     0.00     0  00:00           0           0       0.000 ltr
  WS01005172           JUNCTION      0.00     0.00     0  00:00           0           0       0.000 ltr
  WS01005181           JUNCTION      0.00     0.00     0  00:00           0           0       0.000 ltr
  WS01009841           JUNCTION      0.00     0.00     0  00:00           0           0       0.000 ltr
  WS02000078           JUNCTION      0.00     0.00     0  00:00           0           0       0.000 ltr
  WS02000112           JUNCTION      0.00     0.00     0  00:00           0           0       0.000 ltr
  WS02000136           JUNCTION      0.00     0.00     0  00:00           0           0       0.000 ltr
  WS02004053           JUNCTION      0.00     0.00     0  00:00           0           0       0.000 ltr
  WS02004401           JUNCTION      0.05    51.68     0  02:43      0.0086         3.4       0.861
  WS02005192           JUNCTION     18.61    18.61     0  02:21        1.11        1.11       0.268
  WS02005193           JUNCTION      0.09    18.81     0  02:21       0.014        1.13       0.721
  WS02005196           JUNCTION      0.12    18.72     0  02:21      0.0183        1.12       0.675
  WS02006109           JUNCTION      0.08    35.59     0  03:01      0.0129        2.39       1.008
  WS02006110           JUNCTION      0.08    35.67     0  03:01      0.0126        2.38       1.031
  WS02006111           JUNCTION      0.24    51.18     0  02:43      0.0352        3.44       0.595
  WS02006112           JUNCTION      0.18    51.34     0  02:43      0.0263        3.44       0.939
  WS02006113           JUNCTION     18.97    50.97     0  02:43        1.13        3.46       0.682
  WS02006115           JUNCTION      0.08    51.42     0  02:43      0.0129        3.43       1.092
  WS02006116           JUNCTION      0.24    51.63     0  02:43      0.0347        3.43       0.985
  WS02006183           JUNCTION      0.00     0.00     0  00:00           0           0       0.000 ltr
  WS02006228           JUNCTION     45.53    45.53     0  03:01        2.85           3       0.597
  WS02006229           JUNCTION      0.13    10.33     0  03:05      0.0193        0.78       2.047
  WS02006230           JUNCTION      0.07    10.40     0  03:05      0.0111       0.793       3.518
  WS02006231           JUNCTION      0.13    10.65     0  03:04      0.0197         0.8       1.874
  WS02006232           JUNCTION     13.41    20.94     0  02:45       0.796        1.57       0.959
  WS02006234           JUNCTION      0.14    21.07     0  02:45      0.0208        1.56       0.882
  WS02006235           JUNCTION      0.14    21.20     0  02:45      0.0215        1.56       0.469
  WS02006238           JUNCTION      0.15    21.33     0  02:45      0.0226        1.56       0.630
  WS02006239           JUNCTION      0.11    21.43     0  02:45      0.0167        1.56       0.952
  WS02006242           JUNCTION      0.08    21.57     0  02:45      0.0124        1.57       1.170
  WS02006240           JUNCTION      0.06    21.49     0  02:45     0.00952        1.56       1.053
  WS02006243           JUNCTION      0.17    21.72     0  02:45      0.0259        1.58       1.090
  WS02006245           JUNCTION      0.07    21.79     0  02:45      0.0109        1.58       0.839
  WS02006247           JUNCTION     18.85    40.44     0  03:00         1.2        2.74       0.414
  WS02006248           JUNCTION      0.12    62.52     0  02:41      0.0185        4.19       0.267
  WS02006249           JUNCTION      0.19    25.64     0  02:22      0.0275         1.6       0.917
  WS02006251           JUNCTION      6.69    25.48     0  02:22       0.423        1.57       0.981
  WS02006253           JUNCTION      0.11    18.91     0  02:21      0.0166        1.15       0.719
  WS02618401           JUNCTION      0.00     0.00     0  00:00           0           0       0.000 ltr
  WSA1649              JUNCTION      0.00     0.00     0  00:00           0           0       0.000 ltr
  outfall-5            OUTFALL       0.00    62.52     0  02:41           0        4.07       0.000
  outfall-14           OUTFALL       0.00    51.68     0  02:43           0        3.36       0.000
  outfall-16           OUTFALL       0.00     0.00     0  00:00           0           0       0.000 ltr
  CC-storage           STORAGE      55.74    55.74     0  02:23        3.45        3.45       0.008
  
  
  **********************
  Node Surcharge Summary
  **********************
  
  Surcharging occurs when water rises above the top of the highest conduit.
  ---------------------------------------------------------------------
                                               Max. Height   Min. Depth
                                   Hours       Above Crown    Below Rim
  Node                 Type      Surcharged         Meters       Meters
  ---------------------------------------------------------------------
  WS01000070           JUNCTION        3.83          0.000        0.000
  WS01000323           JUNCTION        3.83          0.000        0.000
  WS01000533           JUNCTION        3.83          0.000        2.147
  WS01005172           JUNCTION        3.83          0.000        0.000
  WS01005181           JUNCTION        3.83          0.000        0.000
  WS01009841           JUNCTION        3.83          0.000        0.000
  WS02000078           JUNCTION        3.83          0.000        0.000
  WS02000112           JUNCTION        3.83          0.000        0.000
  WS02000136           JUNCTION        3.83          0.000        0.000
  WS02004053           JUNCTION        3.83          0.000        0.000
  WS02005192           JUNCTION        0.98          0.441        2.378
  WS02005193           JUNCTION        1.22          0.265        2.352
  WS02005196           JUNCTION        1.05          0.744        1.962
  WS02006109           JUNCTION        2.39          1.215        0.623
  WS02006110           JUNCTION        2.40          1.207        0.638
  WS02006111           JUNCTION        2.40          1.147        0.730
  WS02006112           JUNCTION        2.52          1.369        0.314
  WS02006113           JUNCTION        2.40          1.192        0.741
  WS02006115           JUNCTION        2.53          1.370        0.929
  WS02006116           JUNCTION        2.58          1.416        0.934
  WS02006183           JUNCTION        3.83          0.000        0.000
  WS02006228           JUNCTION        2.39          1.209        1.022
  WS02006229           JUNCTION        2.38          1.167        1.287
  WS02006231           JUNCTION        2.34          1.050        0.493
  WS02006232           JUNCTION        2.31          0.917        0.572
  WS02006234           JUNCTION        2.28          0.770        0.487
  WS02006235           JUNCTION        2.27          0.749        0.545
  WS02006238           JUNCTION        2.27          0.735        0.699
  WS02006239           JUNCTION        2.27          0.689        0.640
  WS02006242           JUNCTION        2.24          0.564        0.285
  WS02006240           JUNCTION        2.24          0.593        0.810
  WS02006243           JUNCTION        2.21          0.423        0.357
  WS02006245           JUNCTION        2.20          0.335        0.520
  WS02006247           JUNCTION        2.20          0.303        0.457
  WS02006249           JUNCTION        2.18          0.179        0.209
  WS02006251           JUNCTION        1.83          0.514        0.996
  WS02006253           JUNCTION        0.69          0.015        2.439
  WS02618401           JUNCTION        3.83          0.000        0.000
  WSA1649              JUNCTION        3.83          0.000        0.000
  
  
  *********************
  Node Flooding Summary
  *********************
  
  Flooding refers to all water that overflows a node, whether it ponds or not.
  --------------------------------------------------------------------------
                                                             Total   Maximum
                                 Maximum   Time of Max       Flood    Ponded
                        Hours       Rate    Occurrence      Volume     Depth
  Node                 Flooded       MLD   days hr:min    10^6 ltr    Meters
  --------------------------------------------------------------------------
  CC-storage              2.42     55.74      0  02:23       3.294     0.000
  
  
  **********************
  Storage Volume Summary
  **********************
  
  --------------------------------------------------------------------------------------------------
                         Average     Avg  Evap Exfil       Maximum     Max    Time of Max    Maximum
                          Volume    Pcnt  Pcnt  Pcnt        Volume    Pcnt     Occurrence    Outflow
  Storage Unit           1000 m3    Full  Loss  Loss       1000 m3    Full    days hr:min        MLD
  --------------------------------------------------------------------------------------------------
  CC-storage               0.153      96     0     0         0.159     100       0  01:24       0.00
  
  
  ***********************
  Outfall Loading Summary
  ***********************
  
  ---------------------------------------------------------------------------------------------------------------------------------
                         Flow       Avg       Max       Total         Total         Total         Total         Total         Total
                         Freq      Flow      Flow      Volume           COD         NH3-N            TN            TP            SS
  Outfall Node           Pcnt       MLD       MLD    10^6 ltr            kg            kg            kg            kg            kg
  ---------------------------------------------------------------------------------------------------------------------------------
  outfall-5             92.08     44.90     62.52       4.068       586.767         0.000         0.000         0.000         0.000
  outfall-14            92.11     37.13     51.68       3.363       495.730         0.000         0.000         0.000         0.000
  outfall-16             0.00      0.00      0.00       0.000         0.000         0.000         0.000         0.000         0.000
  ---------------------------------------------------------------------------------------------------------------------------------
  System                61.40     82.02    114.19       7.432      1082.497         0.000         0.000         0.000         0.000
  
  
  ********************
  Link Flow Summary
  ********************
  
  -----------------------------------------------------------------------------
                                 Maximum  Time of Max   Maximum    Max/    Max/
                                  |Flow|   Occurrence   |Veloc|    Full    Full
  Link                 Type          MLD  days hr:min     m/sec    Flow   Depth
  -----------------------------------------------------------------------------
  WSL2038              CONDUIT     18.61     0  02:21      0.76    0.93    1.00
  WSL2039              CONDUIT     18.81     0  02:21      1.07    0.97    1.00
  WSL2041              CONDUIT     18.72     0  02:21      0.81    0.92    1.00
  WSL2294              CONDUIT     35.59     0  03:01      0.82    1.20    1.00
  WSL2295              CONDUIT     35.67     0  03:01      0.82    1.60    1.00
  WSL2296              CONDUIT     51.18     0  02:43      1.18    0.29    1.00
  WSL2297              CONDUIT     51.34     0  02:43      0.76    0.98    1.00
  WSL2298              CONDUIT     50.97     0  02:43      1.17    2.35    1.00
  WSL2301              CONDUIT     51.42     0  02:43      0.76    0.47    1.00
  WSL2302              CONDUIT     51.63     0  02:43      0.76    0.63    1.00
  WSL2441              CONDUIT     35.52     0  03:01      0.82    0.91    1.00
  WSL2442              CONDUIT     10.33     0  03:05      0.63    0.26    1.00
  WSL2443              CONDUIT     10.53     0  03:04      0.73    0.16    1.00
  WSL2444              CONDUIT     10.65     0  03:04      1.00    0.17    1.00
  WSL2446              CONDUIT     20.94     0  02:45      0.94    0.36    1.00
  WSL2447              CONDUIT     21.07     0  02:45      0.91    1.08    1.00
  WSL2448              CONDUIT     21.20     0  02:45      0.76    0.60    1.00
  WSL2449              CONDUIT     21.33     0  02:45      0.73    0.74    1.00
  WSL2450              CONDUIT     21.43     0  02:45      0.82    0.45    1.00
  WSL2451              CONDUIT     21.49     0  02:45      0.81    1.40    1.00
  WSL2452              CONDUIT     21.57     0  02:45      0.86    0.41    1.00
  WSL2454              CONDUIT     21.72     0  02:45      1.03    0.51    1.00
  WSL2478              CONDUIT     21.79     0  02:45      0.90    0.77    1.00
  WSL2479              CONDUIT     40.44     0  03:00      1.22    0.77    1.00
  WSL2480              CONDUIT     25.64     0  02:22      0.85    1.19    1.00
  WSL2482              CONDUIT     25.48     0  02:22      0.78    0.66    1.00
  WSL2484              CONDUIT     18.91     0  02:21      0.86    0.27    1.00
  WSL2493              CONDUIT     10.22     0  03:05      0.51    0.17    1.00
  8                    CONDUIT     62.52     0  02:41      7.79    0.82    0.69
  19                   CONDUIT      0.00     0  00:00      0.00    0.00    0.00
  17                   CONDUIT     51.68     0  02:43      7.60    0.67    0.60
  CC-Pump-1            PUMP         0.00     0  00:00              0.00
  CC-Pump-2            PUMP         0.00     0  00:00              0.00
  
  
  ***************************
  Flow Classification Summary
  ***************************
  
  -------------------------------------------------------------------------------------
                      Adjusted    ---------- Fraction of Time in Flow Class ---------- 
                       /Actual         Up    Down  Sub   Sup   Up    Down  Norm  Inlet 
  Conduit               Length    Dry  Dry   Dry   Crit  Crit  Crit  Crit  Ltd   Ctrl  
  -------------------------------------------------------------------------------------
  WSL2038                 1.00   0.00  0.00  0.00  1.00  0.00  0.00  0.00  0.01  0.00
  WSL2039                 1.00   0.00  0.00  0.00  0.98  0.02  0.00  0.00  0.00  0.00
  WSL2041                 1.00   0.00  0.00  0.00  1.00  0.00  0.00  0.00  0.27  0.00
  WSL2294                 1.00   0.00  0.00  0.00  1.00  0.00  0.00  0.00  0.00  0.00
  WSL2295                 1.00   0.00  0.00  0.00  1.00  0.00  0.00  0.00  0.00  0.00
  WSL2296                 1.00   0.00  0.00  0.00  1.00  0.00  0.00  0.00  0.17  0.00
  WSL2297                 1.00   0.00  0.00  0.00  1.00  0.00  0.00  0.00  0.00  0.00
  WSL2298                 1.00   0.00  0.00  0.00  0.98  0.02  0.00  0.00  0.00  0.00
  WSL2301                 1.00   0.00  0.00  0.00  1.00  0.00  0.00  0.00  0.04  0.00
  WSL2302                 1.00   0.00  0.00  0.00  1.00  0.00  0.00  0.00  0.01  0.00
  WSL2441                 1.00   0.00  0.00  0.00  1.00  0.00  0.00  0.00  0.00  0.00
  WSL2442                 1.00   0.00  0.00  0.00  1.00  0.00  0.00  0.00  0.17  0.00
  WSL2443                 1.00   0.00  0.00  0.00  1.00  0.00  0.00  0.00  0.30  0.00
  WSL2444                 1.00   0.00  0.00  0.00  0.95  0.05  0.00  0.00  0.21  0.00
  WSL2446                 1.00   0.00  0.00  0.00  0.96  0.04  0.00  0.00  0.06  0.00
  WSL2447                 1.00   0.00  0.00  0.00  1.00  0.00  0.00  0.00  0.00  0.00
  WSL2448                 1.00   0.00  0.00  0.00  1.00  0.00  0.00  0.00  0.00  0.00
  WSL2449                 1.00   0.00  0.00  0.00  1.00  0.00  0.00  0.00  0.02  0.00
  WSL2450                 1.00   0.00  0.00  0.00  1.00  0.00  0.00  0.00  0.34  0.00
  WSL2451                 1.00   0.00  0.00  0.00  1.00  0.00  0.00  0.00  0.00  0.00
  WSL2452                 1.00   0.00  0.00  0.00  1.00  0.00  0.00  0.00  0.38  0.00
  WSL2454                 1.00   0.00  0.00  0.00  1.00  0.00  0.00  0.00  0.01  0.00
  WSL2478                 1.00   0.00  0.00  0.00  1.00  0.00  0.00  0.00  0.00  0.00
  WSL2479                 1.00   0.00  0.00  0.00  1.00  0.00  0.00  0.00  0.36  0.00
  WSL2480                 1.00   0.00  0.00  0.00  1.00  0.00  0.00  0.00  0.00  0.00
  WSL2482                 1.00   0.00  0.00  0.00  1.00  0.00  0.00  0.00  0.34  0.00
  WSL2484                 1.00   0.00  0.00  0.00  1.00  0.00  0.00  0.00  0.40  0.00
  WSL2493                 1.00   0.00  0.00  0.00  1.00  0.00  0.00  0.00  0.05  0.00
  8                       1.00   0.08  0.00  0.00  0.00  0.92  0.00  0.00  0.01  0.00
  19                      1.00   1.00  0.00  0.00  0.00  0.00  0.00  0.00  0.00  0.00
  17                      1.00   0.08  0.00  0.00  0.00  0.92  0.00  0.00  0.00  0.00
  
  
  *************************
  Conduit Surcharge Summary
  *************************
  
  ----------------------------------------------------------------------------
                                                           Hours        Hours 
                         --------- Hours Full --------   Above Full   Capacity
  Conduit                Both Ends  Upstream  Dnstream   Normal Flow   Limited
  ----------------------------------------------------------------------------
  WSL2038                     0.97      0.98      1.05      0.01         0.01
  WSL2039                     1.22      1.22      1.39      0.01         0.01
  WSL2041                     1.05      1.05      1.22      0.01         0.01
  WSL2294                     2.39      2.39      2.40      0.85         0.85
  WSL2295                     2.40      2.40      2.40      1.47         1.47
  WSL2296                     2.40      2.40      2.74      0.01         0.01
  WSL2297                     2.52      2.52      2.53      0.01         0.01
  WSL2298                     2.40      2.40      2.40      1.82         1.87
  WSL2301                     2.53      2.53      2.58      0.01         0.01
  WSL2302                     2.58      2.58      2.62      0.01         0.01
  WSL2441                     2.39      2.39      2.39      0.01         0.01
  WSL2442                     2.39      2.39      2.40      0.01         0.01
  WSL2443                     2.34      2.34      2.39      0.01         0.01
  WSL2444                     2.31      2.31      2.34      0.01         0.01
  WSL2446                     2.28      2.28      2.31      0.01         0.01
  WSL2447                     2.27      2.27      2.28      0.68         0.01
  WSL2448                     2.27      2.27      2.27      0.01         0.01
  WSL2449                     2.27      2.27      2.27      0.01         0.01
  WSL2450                     2.24      2.24      2.27      0.01         0.01
  WSL2451                     2.24      2.24      2.24      1.14         0.01
  WSL2452                     2.21      2.21      2.24      0.01         0.01
  WSL2454                     2.20      2.20      2.21      0.01         0.01
  WSL2478                     2.20      2.20      2.20      0.01         0.01
  WSL2479                     2.18      2.18      2.20      0.01         0.01
  WSL2480                     2.17      2.18      2.18      0.70         0.71
  WSL2482                     1.83      1.83      2.18      0.01         0.01
  WSL2484                     0.69      0.69      1.83      0.01         0.01
  WSL2493                     2.38      2.38      2.39      0.01         0.01
  
  
  ***************
  Pumping Summary
  ***************
  
  ---------------------------------------------------------------------------------------------------------
                                                  Min       Avg       Max     Total     Power    % Time Off
                        Percent   Number of      Flow      Flow      Flow    Volume     Usage    Pump Curve
  Pump                 Utilized   Start-Ups       MLD       MLD       MLD  10^6 ltr     Kw-hr    Low   High
  ---------------------------------------------------------------------------------------------------------
  CC-Pump-1                0.00           0      0.00      0.00      0.00     0.000      0.00    0.0    0.0
  CC-Pump-2                0.00           0      0.00      0.00      0.00     0.000      0.00    0.0    0.0
  
  
  ***************************
  Link Pollutant Load Summary
  ***************************
  
  ------------------------------------------------------------------------------------------
                                 COD         NH3-N            TN            TP            SS
  Link                            kg            kg            kg            kg            kg
  ------------------------------------------------------------------------------------------
  WSL2038                    222.098         0.000         0.000         0.000         0.000
  WSL2039                    228.850         0.000         0.000         0.000         0.000
  WSL2041                    225.327         0.000         0.000         0.000         0.000
  WSL2294                    496.365         0.000         0.000         0.000         0.000
  WSL2295                    490.540         0.000         0.000         0.000         0.000
  WSL2296                    495.173         0.000         0.000         0.000         0.000
  WSL2297                    497.880         0.000         0.000         0.000         0.000
  WSL2298                    490.462         0.000         0.000         0.000         0.000
  WSL2301                    497.865         0.000         0.000         0.000         0.000
  WSL2302                    501.103         0.000         0.000         0.000         0.000
  WSL2441                    502.658         0.000         0.000         0.000         0.000
  WSL2442                    146.096         0.000         0.000         0.000         0.000
  WSL2443                    143.977         0.000         0.000         0.000         0.000
  WSL2444                    144.870         0.000         0.000         0.000         0.000
  WSL2446                    145.923         0.000         0.000         0.000         0.000
  WSL2447                    146.923         0.000         0.000         0.000         0.000
  WSL2448                    147.664         0.000         0.000         0.000         0.000
  WSL2449                    149.051         0.000         0.000         0.000         0.000
  WSL2450                    150.551         0.000         0.000         0.000         0.000
  WSL2451                    152.096         0.000         0.000         0.000         0.000
  WSL2452                    154.742         0.000         0.000         0.000         0.000
  WSL2454                    157.374         0.000         0.000         0.000         0.000
  WSL2478                    158.869         0.000         0.000         0.000         0.000
  WSL2479                    315.089         0.000         0.000         0.000         0.000
  WSL2480                    308.638         0.000         0.000         0.000         0.000
  WSL2482                    304.016         0.000         0.000         0.000         0.000
  WSL2484                    234.231         0.000         0.000         0.000         0.000
  WSL2493                    144.169         0.000         0.000         0.000         0.000
  8                          586.767         0.000         0.000         0.000         0.000
  19                           0.000         0.000         0.000         0.000         0.000
  17                         495.730         0.000         0.000         0.000         0.000
  CC-Pump-1                    0.000         0.000         0.000         0.000         0.000
  CC-Pump-2                    0.000         0.000         0.000         0.000         0.000
  

  Analysis begun on:  Sun Aug 18 09:33:14 2019
  Analysis ended on:  Sun Aug 18 09:33:14 2019
  Total elapsed time: < 1 sec