
  EPA STORM WATER MANAGEMENT MODEL - VERSION 5.1 (Build 5.2.0.dev1)
  --------------------------------------------------------------

  
  *********************************************************
  NOTE: The summary statistics displayed in this report are
  based on results found at every computational time step,  
  not just on results from each reporting time step.
  *********************************************************
  
  ****************
  Analysis Options
  ****************
  Flow Units ............... MLD
  Process Models:
    Rainfall/Runoff ........ YES
    RDII ................... NO
    Snowmelt ............... NO
    Groundwater ............ NO
    Flow Routing ........... YES
    Ponding Allowed ........ NO
    Water Quality .......... YES
  Infiltration Method ...... GREEN_AMPT
  Flow Routing Method ...... DYNWAVE
  Starting Date ............ 08/28/2015 08:00:00
  Ending Date .............. 08/28/2015 12:00:00
  Antecedent Dry Days ...... 4.0
  Report Time Step ......... 00:01:00
  Wet Time Step ............ 00:01:00
  Dry Time Step ............ 00:01:00
  Routing Time Step ........ 5.00 sec
  Variable Time Step ....... YES
  Maximum Trials ........... 8
  Number of Threads ........ 1
  Head Tolerance ........... 0.001500 m
  
  
  **************************        Volume         Depth
  Runoff Quantity Continuity     hectare-m            mm
  **************************     ---------       -------
  Total Precipitation ......         0.219        12.191
  Evaporation Loss .........         0.000         0.000
  Infiltration Loss ........         0.121         6.724
  Surface Runoff ...........         0.052         2.908
  Final Storage ............         0.046         2.562
  Continuity Error (%) .....        -0.028
  
  
  **************************           COD         NH3-N            TN            TP            SS
  Runoff Quality Continuity             kg            kg            kg            kg            kg
  **************************    ----------    ----------    ----------    ----------    ----------
  Initial Buildup ..........       864.000         0.000         0.000         0.000         0.000
  Surface Buildup ..........         6.942         0.000         0.000         0.000         0.000
  Wet Deposition ...........         0.000         0.000         0.000         0.000         0.000
  Sweeping Removal .........         0.000         0.000         0.000         0.000         0.000
  Infiltration Loss ........         0.000         0.000         0.000         0.000         0.000
  BMP Removal ..............         0.000         0.000         0.000         0.000         0.000
  Surface Runoff ...........        43.337         0.000         0.000         0.000         0.000
  Remaining Buildup ........       827.604         0.000         0.000         0.000         0.000
  Continuity Error (%) .....         0.000         0.000         0.000         0.000         0.000
  
  
  **************************        Volume        Volume
  Flow Routing Continuity        hectare-m      10^6 ltr
  **************************     ---------     ---------
  Dry Weather Inflow .......         0.000         0.000
  Wet Weather Inflow .......         0.052         0.523
  Groundwater Inflow .......         0.000         0.000
  RDII Inflow ..............         0.000         0.000
  External Inflow ..........         0.036         0.362
  External Outflow .........         0.076         0.763
  Flooding Loss ............         0.000         0.000
  Evaporation Loss .........         0.000         0.000
  Exfiltration Loss ........         0.000         0.000
  Initial Stored Volume ....         0.000         0.000
  Final Stored Volume ......         0.012         0.122
  Continuity Error (%) .....        -0.011
  
  
  **************************           COD         NH3-N            TN            TP            SS
  Quality Routing Continuity            kg            kg            kg            kg            kg
  **************************    ----------    ----------    ----------    ----------    ----------
  Dry Weather Inflow .......         0.000         0.000         0.000         0.000         0.000
  Wet Weather Inflow .......        43.312         0.000         0.000         0.000         0.000
  Groundwater Inflow .......         0.000         0.000         0.000         0.000         0.000
  RDII Inflow ..............         0.000         0.000         0.000         0.000         0.000
  External Inflow ..........        60.441         0.000         0.000         0.000         0.000
  External Outflow .........        68.852         0.000         0.000         0.000         0.000
  Flooding Loss ............         0.000         0.000         0.000         0.000         0.000
  Exfiltration Loss ........         0.000         0.000         0.000         0.000         0.000
  Mass Reacted .............         0.000         0.000         0.000         0.000         0.000
  Initial Stored Mass ......         0.000         0.000         0.000         0.000         0.000
  Final Stored Mass ........         8.936         0.000         0.000         0.000         0.000
  Continuity Error (%) .....        25.025         0.000         0.000         0.000         0.000
  
  
  *************************
  Highest Continuity Errors
  *************************
  Node WS02006251 (1.79%)
  Node WS02006249 (1.78%)
  
  
  ***************************
  Time-Step Critical Elements
  ***************************
  Link 8 (82.72%)
  
  
  ********************************
  Highest Flow Instability Indexes
  ********************************
  Link WSL2484 (4)
  Link WSL2482 (4)
  Link WSL2480 (3)
  Link 8 (2)
  
  
  *************************
  Routing Time Step Summary
  *************************
  Minimum Time Step           :     0.54 sec
  Average Time Step           :     1.41 sec
  Maximum Time Step           :     5.00 sec
  Percent in Steady State     :     0.00
  Average Iterations per Step :     2.00
  Percent Not Converging      :     0.00
  
  
  ***************************
  Subcatchment Runoff Summary
  ***************************
  
  --------------------------------------------------------------------------------------------------------
                            Total      Total      Total      Total      Total       Total     Peak  Runoff
                           Precip      Runon       Evap      Infil     Runoff      Runoff   Runoff   Coeff
  Subcatchment                 mm         mm         mm         mm         mm    10^6 ltr      MLD
  --------------------------------------------------------------------------------------------------------
  61                        12.19       0.00       0.00       6.72       2.91        0.52     8.50   0.239
  
  
  ****************************
  Subcatchment Washoff Summary
  ****************************
  
  ------------------------------------------------------------------------------------------
                                 COD         NH3-N            TN            TP            SS
  Subcatchment                    kg            kg            kg            kg            kg
  ------------------------------------------------------------------------------------------
  61                          43.337         0.000         0.000         0.000         0.000
  ------------------------------------------------------------------------------------------
  System                      43.337         0.000         0.000         0.000         0.000
  
  
  ******************
  Node Depth Summary
  ******************
  
  ---------------------------------------------------------------------------------
                                 Average  Maximum  Maximum  Time of Max    Reported
                                   Depth    Depth      HGL   Occurrence   Max Depth
  Node                 Type       Meters   Meters   Meters  days hr:min      Meters
  ---------------------------------------------------------------------------------
  WS02006248           JUNCTION     0.67     0.73     8.32     0  01:40        0.73
  WS02006249           JUNCTION     0.66     0.73     8.33     0  00:37        0.73
  WS02006251           JUNCTION     0.60     0.69     8.36     0  00:37        0.68
  WS02006253           JUNCTION     0.47     0.56     8.36     0  00:37        0.56
  outfall-5            OUTFALL      0.09     0.13     7.80     0  01:40        0.13
  outfall-27           OUTFALL      0.00     0.00     7.90     0  00:00        0.00
  CC-storage           STORAGE      1.02     4.51     7.69     0  02:34        4.51
  
  
  *******************
  Node Inflow Summary
  *******************
  
  -------------------------------------------------------------------------------------------------
                                  Maximum  Maximum                  Lateral       Total        Flow
                                  Lateral    Total  Time of Max      Inflow      Inflow     Balance
                                   Inflow   Inflow   Occurrence      Volume      Volume       Error
  Node                 Type           MLD      MLD  days hr:min    10^6 ltr    10^6 ltr     Percent
  -------------------------------------------------------------------------------------------------
  WS02006248           JUNCTION      0.12    18.14     0  01:40      0.0192       0.769       0.641
  WS02006249           JUNCTION      0.19    18.00     0  01:40      0.0286       0.765       1.812
  WS02006251           JUNCTION      0.06    17.67     0  01:40     0.00981       0.754       1.818
  WS02006253           JUNCTION      0.11    17.39     0  01:40      0.0173       0.747       0.531
  outfall-5            OUTFALL       0.00    18.14     0  01:40           0       0.763       0.000
  outfall-27           OUTFALL       0.00     0.00     0  00:00           0           0       0.000 ltr
  CC-storage           STORAGE      10.05    10.05     0  03:00        0.81        0.81      -0.012
  
  
  **********************
  Node Surcharge Summary
  **********************
  
  Surcharging occurs when water rises above the top of the highest conduit.
  ---------------------------------------------------------------------
                                               Max. Height   Min. Depth
                                   Hours       Above Crown    Below Rim
  Node                 Type      Surcharged         Meters       Meters
  ---------------------------------------------------------------------
  WS02006249           JUNCTION        0.56          0.033        0.355
  
  
  *********************
  Node Flooding Summary
  *********************
  
  No nodes were flooded.
  
  
  **********************
  Storage Volume Summary
  **********************
  
  --------------------------------------------------------------------------------------------------
                         Average     Avg  Evap Exfil       Maximum     Max    Time of Max    Maximum
                          Volume    Pcnt  Pcnt  Pcnt        Volume    Pcnt     Occurrence    Outflow
  Storage Unit           1000 m3    Full  Loss  Loss       1000 m3    Full    days hr:min        MLD
  --------------------------------------------------------------------------------------------------
  CC-storage               0.029      18     0     0         0.127      80       0  02:34      17.28
  
  
  ***********************
  Outfall Loading Summary
  ***********************
  
  ---------------------------------------------------------------------------------------------------------------------------------
                         Flow       Avg       Max       Total         Total         Total         Total         Total         Total
                         Freq      Flow      Flow      Volume           COD         NH3-N            TN            TP            SS
  Outfall Node           Pcnt       MLD       MLD    10^6 ltr            kg            kg            kg            kg            kg
  ---------------------------------------------------------------------------------------------------------------------------------
  outfall-5             95.73      9.87     18.14       0.763        68.870         0.000         0.000         0.000         0.000
  outfall-27             0.00      0.00      0.00       0.000         0.000         0.000         0.000         0.000         0.000
  ---------------------------------------------------------------------------------------------------------------------------------
  System                47.86      9.87     18.14       0.763        68.870         0.000         0.000         0.000         0.000
  
  
  ********************
  Link Flow Summary
  ********************
  
  -----------------------------------------------------------------------------
                                 Maximum  Time of Max   Maximum    Max/    Max/
                                  |Flow|   Occurrence   |Veloc|    Full    Full
  Link                 Type          MLD  days hr:min     m/sec    Flow   Depth
  -----------------------------------------------------------------------------
  WSL2480              CONDUIT     18.02     0  01:40      0.54    0.83    1.00
  WSL2482              CONDUIT     17.81     0  01:40      0.54    0.46    0.99
  WSL2484              CONDUIT     17.61     0  01:40      0.67    0.25    0.88
  8                    CONDUIT     18.14     0  01:40      5.73    0.24    0.33
  1                    CONDUIT      0.00     0  00:00      0.00    0.00    0.00
  CC-Pump-1            PUMP        17.28     0  01:40              1.00
  
  
  ***************************
  Flow Classification Summary
  ***************************
  
  -------------------------------------------------------------------------------------
                      Adjusted    ---------- Fraction of Time in Flow Class ---------- 
                       /Actual         Up    Down  Sub   Sup   Up    Down  Norm  Inlet 
  Conduit               Length    Dry  Dry   Dry   Crit  Crit  Crit  Crit  Ltd   Ctrl  
  -------------------------------------------------------------------------------------
  WSL2480                 1.00   0.00  0.00  0.00  1.00  0.00  0.00  0.00  0.00  0.00
  WSL2482                 1.00   0.00  0.00  0.00  1.00  0.00  0.00  0.00  0.03  0.00
  WSL2484                 1.00   0.00  0.00  0.00  1.00  0.00  0.00  0.00  0.10  0.00
  8                       1.00   0.04  0.00  0.00  0.00  0.96  0.00  0.00  0.11  0.00
  1                       1.00   1.00  0.00  0.00  0.00  0.00  0.00  0.00  0.00  0.00
  
  
  *************************
  Conduit Surcharge Summary
  *************************
  
  ----------------------------------------------------------------------------
                                                           Hours        Hours 
                         --------- Hours Full --------   Above Full   Capacity
  Conduit                Both Ends  Upstream  Dnstream   Normal Flow   Limited
  ----------------------------------------------------------------------------
  WSL2480                     0.56      0.56      0.60      0.01         0.01
  WSL2482                     0.01      0.01      0.56      0.01         0.01
  
  
  ***************
  Pumping Summary
  ***************
  
  ---------------------------------------------------------------------------------------------------------
                                                  Min       Avg       Max     Total     Power    % Time Off
                        Percent   Number of      Flow      Flow      Flow    Volume     Usage    Pump Curve
  Pump                 Utilized   Start-Ups       MLD       MLD       MLD  10^6 ltr     Kw-hr    Low   High
  ---------------------------------------------------------------------------------------------------------
  CC-Pump-1               54.17           3      0.00     10.30     17.28     0.725      7.67    0.0    0.0
  
  
  ***************************
  Link Pollutant Load Summary
  ***************************
  
  ------------------------------------------------------------------------------------------
                                 COD         NH3-N            TN            TP            SS
  Link                            kg            kg            kg            kg            kg
  ------------------------------------------------------------------------------------------
  WSL2480                     66.940         0.000         0.000         0.000         0.000
  WSL2482                     63.621         0.000         0.000         0.000         0.000
  WSL2484                     61.687         0.000         0.000         0.000         0.000
  8                           68.870         0.000         0.000         0.000         0.000
  1                            0.000         0.000         0.000         0.000         0.000
  CC-Pump-1                   56.461         0.000         0.000         0.000         0.000
  

  Analysis begun on:  Thu Feb 14 14:55:43 2019
  Analysis ended on:  Thu Feb 14 14:55:43 2019
  Total elapsed time: < 1 sec