
  EPA STORM WATER MANAGEMENT MODEL - VERSION 5.1 (Build 5.2.0.dev1)
  --------------------------------------------------------------

  
  *********************************************************
  NOTE: The summary statistics displayed in this report are
  based on results found at every computational time step,  
  not just on results from each reporting time step.
  *********************************************************
  
  ****************
  Analysis Options
  ****************
  Flow Units ............... MLD
  Process Models:
    Rainfall/Runoff ........ YES
    RDII ................... NO
    Snowmelt ............... NO
    Groundwater ............ NO
    Flow Routing ........... YES
    Ponding Allowed ........ NO
    Water Quality .......... YES
  Infiltration Method ...... GREEN_AMPT
  Flow Routing Method ...... DYNWAVE
  Starting Date ............ 08/28/2015 08:00:00
  Ending Date .............. 08/28/2015 12:00:00
  Antecedent Dry Days ...... 4.0
  Report Time Step ......... 00:01:00
  Wet Time Step ............ 00:01:00
  Dry Time Step ............ 00:01:00
  Routing Time Step ........ 5.00 sec
  Variable Time Step ....... YES
  Maximum Trials ........... 8
  Number of Threads ........ 1
  Head Tolerance ........... 0.001500 m
  
  
  **************************        Volume         Depth
  Runoff Quantity Continuity     hectare-m            mm
  **************************     ---------       -------
  Total Precipitation ......        14.986        53.129
  Evaporation Loss .........         0.000         0.000
  Infiltration Loss ........         5.236        18.563
  Surface Runoff ...........         6.027        21.366
  Final Storage ............         3.731        13.226
  Continuity Error (%) .....        -0.051
  
  
  **************************           COD         NH3-N            TN            TP            SS
  Runoff Quality Continuity             kg            kg            kg            kg            kg
  **************************    ----------    ----------    ----------    ----------    ----------
  Initial Buildup ..........     13074.240         0.000         0.000         0.000         0.000
  Surface Buildup ..........       101.931         0.000         0.000         0.000         0.000
  Wet Deposition ...........         0.000         0.000         0.000         0.000         0.000
  Sweeping Removal .........         0.000         0.000         0.000         0.000         0.000
  Infiltration Loss ........       383.723         0.000         0.000         0.000         0.000
  BMP Removal ..............         0.000         0.000         0.000         0.000         0.000
  Surface Runoff ...........     11175.318         0.000         0.000         0.000         0.000
  Remaining Buildup ........      1626.425         0.000         0.000         0.000         0.000
  Continuity Error (%) .....        -0.071         0.000         0.000         0.000         0.000
  
  
  **************************        Volume        Volume
  Flow Routing Continuity        hectare-m      10^6 ltr
  **************************     ---------     ---------
  Dry Weather Inflow .......         0.000         0.000
  Wet Weather Inflow .......         6.014        60.144
  Groundwater Inflow .......         0.000         0.000
  RDII Inflow ..............         0.000         0.000
  External Inflow ..........         0.561         5.611
  External Outflow .........         2.491        24.914
  Flooding Loss ............         3.887        38.868
  Evaporation Loss .........         0.000         0.000
  Exfiltration Loss ........         0.000         0.000
  Initial Stored Volume ....         0.000         0.000
  Final Stored Volume ......         0.202         2.025
  Continuity Error (%) .....        -0.079
  
  
  **************************           COD         NH3-N            TN            TP            SS
  Quality Routing Continuity            kg            kg            kg            kg            kg
  **************************    ----------    ----------    ----------    ----------    ----------
  Dry Weather Inflow .......         0.000         0.000         0.000         0.000         0.000
  Wet Weather Inflow .......     11168.779         0.000         0.000         0.000         0.000
  Groundwater Inflow .......         0.000         0.000         0.000         0.000         0.000
  RDII Inflow ..............         0.000         0.000         0.000         0.000         0.000
  External Inflow ..........       937.001         0.000         0.000         0.000         0.000
  External Outflow .........      3994.353         0.000         0.000         0.000         0.000
  Flooding Loss ............      8013.165         0.000         0.000         0.000         0.000
  Exfiltration Loss ........         0.000         0.000         0.000         0.000         0.000
  Mass Reacted .............         0.000         0.000         0.000         0.000         0.000
  Initial Stored Mass ......         0.000         0.000         0.000         0.000         0.000
  Final Stored Mass ........        99.101         0.000         0.000         0.000         0.000
  Continuity Error (%) .....        -0.007         0.000         0.000         0.000         0.000
  
  
  *************************
  Highest Continuity Errors
  *************************
  Node WS02003059 (1.04%)
  
  
  ***************************
  Time-Step Critical Elements
  ***************************
  Link 8 (76.17%)
  Link WSL1477 (6.85%)
  Link WSL2448 (4.09%)
  Link WSL1516 (2.63%)
  Link WSL2012 (1.53%)
  
  
  ********************************
  Highest Flow Instability Indexes
  ********************************
  Link WSL1477 (68)
  Link WSL1516 (64)
  Link WSL1521 (47)
  Link WSL1476 (33)
  Link WSL2448 (22)
  
  
  *************************
  Routing Time Step Summary
  *************************
  Minimum Time Step           :     0.50 sec
  Average Time Step           :     0.99 sec
  Maximum Time Step           :     5.00 sec
  Percent in Steady State     :    -0.00
  Average Iterations per Step :     3.40
  Percent Not Converging      :    13.50
  
  
  ***************************
  Subcatchment Runoff Summary
  ***************************
  
  --------------------------------------------------------------------------------------------------------
                            Total      Total      Total      Total      Total       Total     Peak  Runoff
                           Precip      Runon       Evap      Infil     Runoff      Runoff   Runoff   Coeff
  Subcatchment                 mm         mm         mm         mm         mm    10^6 ltr      MLD
  --------------------------------------------------------------------------------------------------------
  1                         53.13     119.66       0.00      16.65     122.50        1.48    22.36   0.709
  2                         53.13       0.00       0.00      12.40      27.66        0.93    15.38   0.521
  3                         53.13       0.00       0.00      12.64      25.91        1.32    21.67   0.488
  4                         53.13       0.00       0.00      12.25      28.68        0.76    12.64   0.540
  5                         53.13      67.69       0.00      15.52      80.43        1.37    20.11   0.666
  6                         53.13       0.00       0.00      12.62      26.04        1.29    21.11   0.490
  7                         53.13       0.00       0.00      22.50      21.52       34.43   540.55   0.405
  8                         53.13       0.00       0.00      12.53      26.68        1.13    18.59   0.502
  9                         53.13      26.44       0.00      14.24      43.79        1.66    24.13   0.550
  17                        53.13       0.00       0.00      12.45      27.30        1.00    16.50   0.514
  18                        53.13       0.00       0.00      12.55      26.59        1.15    18.96   0.500
  28                        53.13     110.13       0.00      17.39     104.62        2.75    40.80   0.641
  29                        53.13      44.92       0.00      14.66      58.50        1.41    20.33   0.597
  30                        53.13     104.48       0.00      16.07     116.85        1.09    16.50   0.741
  31                        53.13       0.00       0.00      12.43      27.44        0.97    16.05   0.516
  33                        53.13       0.00       0.00      11.45      33.44        0.29     5.04   0.629
  34                        53.13      59.40       0.00      15.41      72.41        1.50    21.97   0.644
  35                        53.13       0.00       0.00      12.33      28.12        0.85    14.08   0.529
  36                        53.13      61.68       0.00      16.43      62.42        3.68    52.37   0.544
  39                        53.13       0.00       0.00      12.41      27.61        0.94    15.53   0.520
  40                        53.13      14.88       0.00      13.54      36.17        1.41    21.43   0.532
  41                        53.13       0.00       0.00      12.04      30.05        0.58     9.75   0.566
  42                        53.13       0.00       0.00      12.15      29.35        0.67    11.13   0.552
  43                        53.13       0.00       0.00      10.74      36.81        0.13     2.44   0.693
  44                        53.13    1025.95       0.00      25.83     971.29        3.59    54.03   0.900
  45                        53.13       0.00       0.00      11.58      32.74        0.34     5.79   0.616
  46                        53.13      50.40       0.00      14.96      64.73        1.39    20.09   0.625
  47                        53.13       0.00       0.00      11.64      32.43        0.36     6.16   0.610
  48                        53.13      22.74       0.00      13.30      47.10        0.74    11.35   0.621
  55                        53.13      33.93       0.00      13.25      59.91        0.50     7.76   0.688
  56                        53.13      54.60       0.00      15.16      67.94        1.45    21.22   0.631
  57                        53.13       0.00       0.00      12.63      25.99        1.30    21.32   0.489
  59                        53.13       0.00       0.00      11.42      33.58        0.28     4.90   0.632
  60                        53.13      73.94       0.00      14.27      96.61        0.50     7.92   0.760
  61                        53.13       0.00       0.00      13.21      21.04        3.79    62.15   0.396
  62                        53.13       0.00       0.00      13.23      20.86        3.96    65.02   0.393
  64                        53.13       0.00       0.00      11.70      32.10        0.39     6.57   0.604
  
  
  ****************************
  Subcatchment Washoff Summary
  ****************************
  
  ------------------------------------------------------------------------------------------
                                 COD         NH3-N            TN            TP            SS
  Subcatchment                    kg            kg            kg            kg            kg
  ------------------------------------------------------------------------------------------
  1                          175.046         0.000         0.000         0.000         0.000
  2                            0.000         0.000         0.000         0.000         0.000
  3                            0.000         0.000         0.000         0.000         0.000
  4                          123.273         0.000         0.000         0.000         0.000
  5                          230.843         0.000         0.000         0.000         0.000
  6                          225.151         0.000         0.000         0.000         0.000
  7                         6966.934         0.000         0.000         0.000         0.000
  8                          194.172         0.000         0.000         0.000         0.000
  9                          283.547         0.000         0.000         0.000         0.000
  17                         168.761         0.000         0.000         0.000         0.000
  18                         198.612         0.000         0.000         0.000         0.000
  28                         454.478         0.000         0.000         0.000         0.000
  29                         227.421         0.000         0.000         0.000         0.000
  30                         180.665         0.000         0.000         0.000         0.000
  31                         163.389         0.000         0.000         0.000         0.000
  33                          41.035         0.000         0.000         0.000         0.000
  34                         244.013         0.000         0.000         0.000         0.000
  35                         140.016         0.000         0.000         0.000         0.000
  36                         645.998         0.000         0.000         0.000         0.000
  39                         157.111         0.000         0.000         0.000         0.000
  40                         238.279         0.000         0.000         0.000         0.000
  41                          90.474         0.000         0.000         0.000         0.000
  42                         106.005         0.000         0.000         0.000         0.000
  43                          17.106         0.000         0.000         0.000         0.000
  44                         641.954         0.000         0.000         0.000         0.000
  45                          48.488         0.000         0.000         0.000         0.000
  46                         214.845         0.000         0.000         0.000         0.000
  47                          52.206         0.000         0.000         0.000         0.000
  48                         111.866         0.000         0.000         0.000         0.000
  55                          70.363         0.000         0.000         0.000         0.000
  56                         228.295         0.000         0.000         0.000         0.000
  57                         227.795         0.000         0.000         0.000         0.000
  59                          39.635         0.000         0.000         0.000         0.000
  60                          72.678         0.000         0.000         0.000         0.000
  61                         770.918         0.000         0.000         0.000         0.000
  62                         810.844         0.000         0.000         0.000         0.000
  64                          56.382         0.000         0.000         0.000         0.000
  ------------------------------------------------------------------------------------------
  System                   14618.597         0.000         0.000         0.000         0.000
  
  
  ******************
  Node Depth Summary
  ******************
  
  ---------------------------------------------------------------------------------
                                 Average  Maximum  Maximum  Time of Max    Reported
                                   Depth    Depth      HGL   Occurrence   Max Depth
  Node                 Type       Meters   Meters   Meters  days hr:min      Meters
  ---------------------------------------------------------------------------------
  WS01000070           JUNCTION     0.00     0.00     0.00     0  00:00        0.00
  WS01000323           JUNCTION     0.00     0.00     0.00     0  00:00        0.00
  WS01000533           JUNCTION     0.00     0.00     6.86     0  00:00        0.00
  WS01005172           JUNCTION     0.00     0.00     0.00     0  00:00        0.00
  WS01005181           JUNCTION     0.00     0.00     0.00     0  00:00        0.00
  WS01009841           JUNCTION     0.00     0.00     0.00     0  00:00        0.00
  WS02000078           JUNCTION     0.00     0.00     0.00     0  00:00        0.00
  WS02000112           JUNCTION     0.00     0.00     0.00     0  00:00        0.00
  WS02000136           JUNCTION     0.00     0.00     0.00     0  00:00        0.00
  WS02001211           JUNCTION     0.80     1.05     5.89     0  02:43        1.04
  WS02001212           JUNCTION     0.82     1.61     6.41     0  02:22        1.10
  WS02001213           JUNCTION     0.91     1.71     6.41     0  02:22        1.32
  WS02003059           JUNCTION     0.94     3.10     7.75     0  03:20        1.26
  WS02003060           JUNCTION     1.02     1.92     6.47     0  02:33        1.35
  WS02003066           JUNCTION     0.47     0.67     5.97     0  02:44        0.64
  WS02003067           JUNCTION     0.76     1.00     6.32     0  02:51        0.96
  WS02003071           JUNCTION     1.03     1.44     5.84     0  02:44        1.35
  WS02003072           JUNCTION     0.88     1.14     5.51     0  03:20        1.14
  WS02003073           JUNCTION     0.95     1.81     6.05     0  03:19        1.17
  WS02003076           JUNCTION     0.86     1.09     5.32     0  03:19        1.07
  WS02003077           JUNCTION     0.20     0.48     5.49     0  03:20        0.48
  WS02003078           JUNCTION     0.12     0.18     7.08     0  02:39        0.17
  WS02003079           JUNCTION     0.40     0.53     7.44     0  02:29        0.53
  WS02003093           JUNCTION     0.24     0.36     7.70     0  02:28        0.36
  WS02003094           JUNCTION     0.35     0.48     7.70     0  02:29        0.48
  WS02003098           JUNCTION     0.32     0.47     7.64     0  02:29        0.47
  WS02003099           JUNCTION     0.45     0.60     7.64     0  02:28        0.60
  WS02003102           JUNCTION     0.43     0.59     7.62     0  02:28        0.59
  WS02003103           JUNCTION     0.45     0.60     7.57     0  02:28        0.60
  WS02003104           JUNCTION     0.44     0.58     7.54     0  02:28        0.58
  WS02003106           JUNCTION     0.43     0.56     7.49     0  02:28        0.56
  WS02004050           JUNCTION     0.64     0.79     5.01     0  02:46        0.79
  WS02004053           JUNCTION     0.00     0.00     0.00     0  00:00        0.00
  WS02004136           JUNCTION     0.18     0.18     6.91     0  01:07        0.18
  WS02004139           JUNCTION     0.69     0.92     5.88     0  02:42        0.92
  WS02004401           JUNCTION     1.16     1.60     7.60     0  02:52        1.59
  WS02004402           JUNCTION     1.16     1.61     7.57     0  02:52        1.59
  WS02004403           JUNCTION     1.15     1.59     7.52     0  02:52        1.57
  WS02004404           JUNCTION     1.21     1.64     7.49     0  02:51        1.63
  WS02004405           JUNCTION     1.20     1.64     7.48     0  02:52        1.62
  WS02004406           JUNCTION     1.16     1.58     7.41     0  02:52        1.56
  WS02004407           JUNCTION     1.07     1.46     7.26     0  02:52        1.44
  WS02004409           JUNCTION     1.01     1.38     7.15     0  02:52        1.35
  WS02004410           JUNCTION     0.93     1.26     6.98     0  02:52        1.24
  WS02004411           JUNCTION     0.85     1.14     6.82     0  02:52        1.12
  WS02004412           JUNCTION     0.74     1.00     6.64     0  02:51        1.00
  WS02004413           JUNCTION     0.75     0.98     6.45     0  02:51        0.96
  WS02004997           JUNCTION     6.39     6.70     8.31     0  02:40        6.69
  WS02005192           JUNCTION     0.59     0.92     8.79     0  02:11        0.83
  WS02005193           JUNCTION     0.61     0.83     8.65     0  02:28        0.83
  WS02005196           JUNCTION     0.60     0.85     8.70     0  02:11        0.83
  WS02006109           JUNCTION     1.21     1.68     8.30     0  02:52        1.66
  WS02006110           JUNCTION     1.11     1.57     8.17     0  02:52        1.56
  WS02006111           JUNCTION     0.86     1.36     7.94     0  02:13        1.29
  WS02006112           JUNCTION     1.19     1.64     7.76     0  02:52        1.62
  WS02006113           JUNCTION     1.02     1.47     8.06     0  02:52        1.46
  WS02006115           JUNCTION     1.15     1.60     7.70     0  02:52        1.57
  WS02006116           JUNCTION     1.17     1.62     7.66     0  02:52        1.60
  WS02006183           JUNCTION     0.00     0.00     0.00     0  00:00        0.00
  WS02006228           JUNCTION     1.28     1.75     8.40     0  02:52        1.74
  WS02006229           JUNCTION     1.25     1.72     8.41     0  02:52        1.71
  WS02006230           JUNCTION     1.23     1.67     8.42     0  02:52        1.67
  WS02006231           JUNCTION     1.12     1.54     8.44     0  02:52        1.54
  WS02006232           JUNCTION     1.04     1.43     8.46     0  02:52        1.42
  WS02006234           JUNCTION     0.94     1.30     8.46     0  02:52        1.29
  WS02006235           JUNCTION     0.95     1.29     8.46     0  02:44        1.28
  WS02006238           JUNCTION     0.95     1.28     8.46     0  02:52        1.27
  WS02006239           JUNCTION     0.94     1.25     8.46     0  02:52        1.24
  WS02006242           JUNCTION     0.91     1.16     8.46     0  02:51        1.16
  WS02006240           JUNCTION     0.89     1.17     8.46     0  02:51        1.16
  WS02006243           JUNCTION     0.81     1.05     8.47     0  02:51        1.04
  WS02006245           JUNCTION     0.77     0.98     8.47     0  02:50        0.97
  WS02006247           JUNCTION     0.77     0.96     8.47     0  02:52        0.95
  WS02006248           JUNCTION     0.70     0.86     8.45     0  02:53        0.86
  WS02006249           JUNCTION     0.72     0.90     8.50     0  02:45        0.90
  WS02006251           JUNCTION     0.72     0.92     8.59     0  02:35        0.92
  WS02006253           JUNCTION     0.62     0.82     8.62     0  02:31        0.82
  WS02618401           JUNCTION     0.00     0.00     0.00     0  00:00        0.00
  WS8802               JUNCTION     0.00     0.00     4.38     0  00:00        0.00
  WSA1649              JUNCTION     0.00     0.00     0.00     0  00:00        0.00
  WSF200               JUNCTION     0.50     0.74     5.84     0  02:44        0.71
  XR-Inflow            JUNCTION     6.25     6.55     8.36     0  01:26        6.55
  WS02004114           JUNCTION     6.35     6.66     8.26     0  02:21        6.65
  outfall-2            OUTFALL      0.00     0.00     7.00     0  00:00        0.00
  outfall-5            OUTFALL      0.15     0.26     7.93     0  02:53        0.26
  outfall-14           OUTFALL      0.00     0.00     7.66     0  00:00        0.00
  outfall-16           OUTFALL      0.00     0.00     8.39     0  00:00        0.00
  12                   OUTFALL      0.64     0.78     0.78     0  02:46        0.78
  XR-storage           STORAGE      7.43     7.72     8.22     0  01:22        7.72
  CC-storage           STORAGE      5.25     5.63     8.81     0  01:55        5.63
  JK-storage           STORAGE      4.55     4.80     7.80     0  01:26        4.80
  
  
  *******************
  Node Inflow Summary
  *******************
  
  -------------------------------------------------------------------------------------------------
                                  Maximum  Maximum                  Lateral       Total        Flow
                                  Lateral    Total  Time of Max      Inflow      Inflow     Balance
                                   Inflow   Inflow   Occurrence      Volume      Volume       Error
  Node                 Type           MLD      MLD  days hr:min    10^6 ltr    10^6 ltr     Percent
  -------------------------------------------------------------------------------------------------
  WS01000070           JUNCTION      0.00     0.00     0  00:00           0           0       0.000 ltr
  WS01000323           JUNCTION      0.00     0.00     0  00:00           0           0       0.000 ltr
  WS01000533           JUNCTION      0.00     0.00     0  00:00           0           0       0.000 ltr
  WS01005172           JUNCTION      0.00     0.00     0  00:00           0           0       0.000 ltr
  WS01005181           JUNCTION      0.00     0.00     0  00:00           0           0       0.000 ltr
  WS01009841           JUNCTION      0.00     0.00     0  00:00           0           0       0.000 ltr
  WS02000078           JUNCTION      0.00     0.00     0  00:00           0           0       0.000 ltr
  WS02000112           JUNCTION      0.00     0.00     0  00:00           0           0       0.000 ltr
  WS02000136           JUNCTION      0.00     0.00     0  00:00           0           0       0.000 ltr
  WS02001211           JUNCTION      0.25    49.23     0  03:23      0.0407        4.95       0.835
  WS02001212           JUNCTION      0.21    43.52     0  03:25      0.0346        4.94       0.590
  WS02001213           JUNCTION      0.30    50.64     0  03:45      0.0489        4.96       0.719
  WS02003059           JUNCTION      0.23    49.38     0  03:24      0.0378        4.96       1.049
  WS02003060           JUNCTION      0.16   226.79     0  02:45      0.0252        19.6       0.350
  WS02003066           JUNCTION      0.08   233.63     0  02:51      0.0122        14.7       0.114
  WS02003067           JUNCTION      0.26   191.62     0  02:54      0.0395        14.7       0.177
  WS02003071           JUNCTION      0.35   225.85     0  02:45      0.0538        19.6       0.357
  WS02003072           JUNCTION      0.24   226.67     0  02:44      0.0382        19.6       0.270
  WS02003073           JUNCTION      0.07   271.22     0  02:45     0.00978        22.3       0.184
  WS02003076           JUNCTION      0.72   269.13     0  02:46        0.12        22.4       0.144
  WS02003077           JUNCTION      0.04    49.20     0  02:42      0.0059        2.77      -0.012
  WS02003078           JUNCTION      0.03    57.31     0  02:36     0.00419        2.77       0.078
  WS02003079           JUNCTION      0.04    42.63     0  02:25     0.00561        2.77       0.188
  WS02003093           JUNCTION      0.02     0.34     0  02:14     0.00306     0.00753      25.647
  WS02003094           JUNCTION     24.18    24.23     0  02:29        1.66        1.67       0.523
  WS02003098           JUNCTION      0.02    24.22     0  02:29     0.00293        1.66       0.408
  WS02003099           JUNCTION      0.07    24.38     0  02:33      0.0109        1.66       0.744
  WS02003102           JUNCTION     18.62    42.36     0  02:27        1.13        2.78       0.412
  WS02003103           JUNCTION      0.02    42.37     0  02:26     0.00239        2.77       0.263
  WS02003104           JUNCTION      0.02    42.39     0  02:26     0.00302        2.77       0.223
  WS02003106           JUNCTION      0.05    42.34     0  02:26     0.00727        2.77       0.267
  WS02004050           JUNCTION      0.72   294.58     0  02:45       0.119        22.5       0.529
  WS02004053           JUNCTION      0.00     0.00     0  00:00           0           0       0.000 ltr
  WS02004136           JUNCTION      0.44    32.92     0  01:07      0.0703        4.88       0.066
  WS02004139           JUNCTION      0.38    33.59     0  01:09      0.0619        4.93       0.601
  WS02004401           JUNCTION      0.05    95.06     0  02:29     0.00897        8.59       0.349
  WS02004402           JUNCTION      0.22    95.59     0  02:45      0.0335        8.59       0.314
  WS02004403           JUNCTION      0.23    95.80     0  02:45      0.0349         8.6       0.275
  WS02004404           JUNCTION      0.24    96.01     0  02:45      0.0365        8.61       0.200
  WS02004405           JUNCTION     12.71   108.18     0  02:26       0.773        9.37       0.270
  WS02004406           JUNCTION     40.92   145.60     0  02:52        2.76        12.1       0.327
  WS02004407           JUNCTION      0.11   145.70     0  02:52      0.0171        12.1       0.298
  WS02004409           JUNCTION     20.31   165.90     0  02:52         1.4        13.4       0.241
  WS02004410           JUNCTION      0.15   166.03     0  02:52      0.0226        13.4       0.242
  WS02004411           JUNCTION      0.25   166.35     0  02:53      0.0379        13.4       0.225
  WS02004412           JUNCTION     21.19   184.37     0  02:41         1.3        14.7       0.176
  WS02004413           JUNCTION      0.11   189.67     0  02:52      0.0172        14.7       0.168
  WS02004997           JUNCTION      0.42    63.60     0  02:20      0.0693        8.32       0.470
  WS02005192           JUNCTION     21.42    21.42     0  02:21        1.32        1.32       0.189
  WS02005193           JUNCTION      0.09    21.62     0  02:20      0.0146        1.34       0.495
  WS02005196           JUNCTION      0.12    21.54     0  02:20       0.019        1.33       0.451
  WS02006109           JUNCTION      0.08    78.47     0  03:11      0.0135        7.28       0.340
  WS02006110           JUNCTION      0.08    78.54     0  03:11      0.0132        7.27       0.327
  WS02006111           JUNCTION      0.24    94.57     0  02:29      0.0366        8.61       0.149
  WS02006112           JUNCTION      0.18    94.72     0  02:29      0.0273        8.62       0.340
  WS02006113           JUNCTION     21.82    94.36     0  02:29        1.35        8.59       0.228
  WS02006115           JUNCTION      0.08    94.80     0  02:29      0.0134        8.61       0.390
  WS02006116           JUNCTION      0.24    95.01     0  02:29       0.036        8.61       0.359
  WS02006183           JUNCTION      0.00     0.00     0  00:00           0           0       0.000 ltr
  WS02006228           JUNCTION     54.19    78.39     0  03:11        3.61        7.29       0.254
  WS02006229           JUNCTION      0.13    48.28     0  02:09        0.02        3.69       0.440
  WS02006230           JUNCTION      0.07    48.84     0  02:08      0.0116        3.69       0.529
  WS02006231           JUNCTION      0.13    48.76     0  02:08      0.0205        3.69       0.420
  WS02006232           JUNCTION     15.45    48.59     0  02:11       0.944        3.69       0.432
  WS02006234           JUNCTION      0.14    38.70     0  03:59      0.0216        2.76       0.504
  WS02006235           JUNCTION      0.14    38.67     0  02:05      0.0223        2.74       0.291
  WS02006238           JUNCTION      0.15    38.62     0  02:04      0.0235        2.73       0.369
  WS02006239           JUNCTION      0.11    39.18     0  02:06      0.0174        2.73       0.585
  WS02006242           JUNCTION      0.08    40.64     0  02:06      0.0129        2.73       0.706
  WS02006240           JUNCTION      0.06    39.99     0  02:06     0.00992        2.72       0.620
  WS02006243           JUNCTION      0.17    41.57     0  02:06      0.0269        2.74       0.645
  WS02006245           JUNCTION      0.07    42.18     0  02:07      0.0113        2.72       0.497
  WS02006247           JUNCTION     22.49    42.71     0  02:07         1.5        3.07       0.387
  WS02006248           JUNCTION      0.12    57.60     0  02:53      0.0192        4.13       0.252
  WS02006249           JUNCTION      0.19    46.83     0  02:22      0.0286        3.77       0.369
  WS02006251           JUNCTION      7.82    46.67     0  02:22       0.506        3.76       0.367
  WS02006253           JUNCTION      0.11    39.00     0  02:21      0.0173        3.26       0.208
  WS02618401           JUNCTION      0.00     0.00     0  00:00           0           0       0.000 ltr
  WS8802               JUNCTION      0.00     0.00     0  00:00           0           0       0.000 ltr
  WSA1649              JUNCTION      0.00     0.00     0  00:00           0           0       0.000 ltr
  WSF200               JUNCTION      0.14   211.82     0  02:44      0.0216        14.7       0.053
  XR-Inflow            JUNCTION    559.63   559.63     0  02:42        37.7        37.7       0.067
  WS02004114           JUNCTION      0.57    64.14     0  02:19      0.0916        8.37       0.287
  outfall-2            OUTFALL       0.00     0.00     0  00:00           0           0       0.000 ltr
  outfall-5            OUTFALL       0.00    57.60     0  02:53           0        2.55       0.000
  outfall-14           OUTFALL       0.00     0.00     0  00:00           0           0       0.000 ltr
  outfall-16           OUTFALL       0.00     0.00     0  00:00           0           0       0.000 ltr
  12                   OUTFALL       0.00   264.28     0  02:46           0        22.4       0.000
  XR-storage           STORAGE       0.00    64.14     0  02:20           0        8.35       0.558
  CC-storage           STORAGE      63.77    63.77     0  02:23        4.07        4.07       0.003
  JK-storage           STORAGE      66.02    66.02     0  02:23        4.13        4.13       0.007
  
  
  **********************
  Node Surcharge Summary
  **********************
  
  Surcharging occurs when water rises above the top of the highest conduit.
  ---------------------------------------------------------------------
                                               Max. Height   Min. Depth
                                   Hours       Above Crown    Below Rim
  Node                 Type      Surcharged         Meters       Meters
  ---------------------------------------------------------------------
  WS01000070           JUNCTION        4.00          0.000        0.000
  WS01000323           JUNCTION        4.00          0.000        0.000
  WS01000533           JUNCTION        4.00          0.000        2.147
  WS01005172           JUNCTION        4.00          0.000        0.000
  WS01005181           JUNCTION        4.00          0.000        0.000
  WS01009841           JUNCTION        4.00          0.000        0.000
  WS02000078           JUNCTION        4.00          0.000        0.000
  WS02000112           JUNCTION        4.00          0.000        0.000
  WS02000136           JUNCTION        4.00          0.000        0.000
  WS02001212           JUNCTION        0.67          0.611        2.653
  WS02001213           JUNCTION        0.91          0.706        2.656
  WS02003059           JUNCTION        1.00          2.100        1.617
  WS02003060           JUNCTION        0.72          0.716        2.516
  WS02003071           JUNCTION        0.40          0.240        3.317
  WS02003073           JUNCTION        0.01          0.609        3.466
  WS02004053           JUNCTION        4.00          0.000        0.000
  WS02004402           JUNCTION        1.61          0.606        1.134
  WS02004403           JUNCTION        1.59          0.589        1.441
  WS02004404           JUNCTION        1.82          0.639        2.141
  WS02004405           JUNCTION        1.79          0.635        2.165
  WS02004406           JUNCTION        1.67          0.584        1.866
  WS02004407           JUNCTION        1.40          0.459        1.884
  WS02004409           JUNCTION        1.24          0.377        1.983
  WS02004410           JUNCTION        1.04          0.256        2.284
  WS02004411           JUNCTION        0.75          0.136        2.394
  WS02004412           JUNCTION        0.01          0.000        2.310
  WS02004997           JUNCTION        3.88          5.795        0.205
  WS02005192           JUNCTION        1.08          0.321        2.498
  WS02005193           JUNCTION        1.19          0.234        2.383
  WS02005196           JUNCTION        1.12          0.246        2.460
  WS02006109           JUNCTION        1.88          0.878        0.960
  WS02006110           JUNCTION        1.67          0.772        1.073
  WS02006111           JUNCTION        1.23          0.559        1.318
  WS02006112           JUNCTION        1.57          0.639        1.044
  WS02006113           JUNCTION        1.47          0.669        1.264
  WS02006115           JUNCTION        1.50          0.601        1.698
  WS02006116           JUNCTION        1.57          0.617        1.733
  WS02006183           JUNCTION        4.00          0.000        0.000
  WS02006228           JUNCTION        1.93          0.954        1.277
  WS02006229           JUNCTION        1.92          0.920        1.534
  WS02006231           JUNCTION        1.95          0.842        0.701
  WS02006232           JUNCTION        1.90          0.727        0.762
  WS02006234           JUNCTION        1.78          0.597        0.660
  WS02006235           JUNCTION        1.87          0.591        0.703
  WS02006238           JUNCTION        1.87          0.583        0.851
  WS02006239           JUNCTION        1.88          0.552        0.777
  WS02006242           JUNCTION        1.88          0.463        0.386
  WS02006240           JUNCTION        1.86          0.474        0.929
  WS02006243           JUNCTION        1.83          0.346        0.434
  WS02006245           JUNCTION        1.74          0.278        0.577
  WS02006247           JUNCTION        1.79          0.259        0.501
  WS02006249           JUNCTION        1.48          0.201        0.187
  WS02006251           JUNCTION        1.33          0.225        1.285
  WS02006253           JUNCTION        0.93          0.123        2.331
  WS02618401           JUNCTION        4.00          0.000        0.000
  WS8802               JUNCTION        4.00          0.000        4.942
  WSA1649              JUNCTION        4.00          0.000        0.000
  XR-Inflow            JUNCTION        3.87          5.650        0.000
  WS02004114           JUNCTION        3.88          5.757        0.758
  
  
  *********************
  Node Flooding Summary
  *********************
  
  Flooding refers to all water that overflows a node, whether it ponds or not.
  --------------------------------------------------------------------------
                                                             Total   Maximum
                                 Maximum   Time of Max       Flood    Ponded
                        Hours       Rate    Occurrence      Volume     Depth
  Node                 Flooded       MLD   days hr:min    10^6 ltr    Meters
  --------------------------------------------------------------------------
  XR-Inflow               2.55    496.50      0  02:42      29.440     0.000
  XR-storage              2.63     31.65      0  02:19       3.432     0.000
  CC-storage              2.05     46.49      0  02:23       2.001     0.000
  JK-storage              2.57     66.02      0  02:23       3.997     0.000
  
  
  **********************
  Storage Volume Summary
  **********************
  
  --------------------------------------------------------------------------------------------------
                         Average     Avg  Evap Exfil       Maximum     Max    Time of Max    Maximum
                          Volume    Pcnt  Pcnt  Pcnt        Volume    Pcnt     Occurrence    Outflow
  Storage Unit           1000 m3    Full  Loss  Loss       1000 m3    Full    days hr:min        MLD
  --------------------------------------------------------------------------------------------------
  XR-storage               0.060      96     0     0         0.063     100       0  01:22      32.48
  CC-storage               0.148      93     0     0         0.159     100       0  01:55      17.28
  JK-storage               0.129      95     0     0         0.136     100       0  01:26       0.00
  
  
  ***********************
  Outfall Loading Summary
  ***********************
  
  ---------------------------------------------------------------------------------------------------------------------------------
                         Flow       Avg       Max       Total         Total         Total         Total         Total         Total
                         Freq      Flow      Flow      Volume           COD         NH3-N            TN            TP            SS
  Outfall Node           Pcnt       MLD       MLD    10^6 ltr            kg            kg            kg            kg            kg
  ---------------------------------------------------------------------------------------------------------------------------------
  outfall-2              0.00      0.00      0.00       0.000         0.000         0.000         0.000         0.000         0.000
  outfall-5             81.97     36.30     57.60       2.546       387.258         0.000         0.000         0.000         0.000
  outfall-14             0.00      0.00      0.00       0.000         0.000         0.000         0.000         0.000         0.000
  outfall-16             0.00      0.00      0.00       0.000         0.000         0.000         0.000         0.000         0.000
  12                    99.99    203.32    264.28      22.368      3607.616         0.000         0.000         0.000         0.000
  ---------------------------------------------------------------------------------------------------------------------------------
  System                36.39    239.61    321.29      24.914      3994.874         0.000         0.000         0.000         0.000
  
  
  ********************
  Link Flow Summary
  ********************
  
  -----------------------------------------------------------------------------
                                 Maximum  Time of Max   Maximum    Max/    Max/
                                  |Flow|   Occurrence   |Veloc|    Full    Full
  Link                 Type          MLD  days hr:min     m/sec    Flow   Depth
  -----------------------------------------------------------------------------
  WSL49                CONDUIT    268.41     0  02:46      3.03    3.34    0.91
  WSL1465              CONDUIT     49.90     0  03:23      1.66    0.45    1.00
  WSL1472              CONDUIT    226.45     0  02:44      2.38    2.58    0.96
  WSL1475              CONDUIT    293.87     0  02:45      3.49    3.14    0.65
  WSL1476              CONDUIT     49.58     0  03:20      1.61    0.24    0.80
  WSL1477              CONDUIT     57.29     0  02:36      3.86    2.26    0.59
  WSL1490              CONDUIT     43.31     0  03:25      1.39    0.70    1.00
  WSL1491              CONDUIT     50.36     0  03:45      1.45    0.29    1.00
  WSL1492              CONDUIT     49.16     0  03:24      1.39    0.76    1.00
  WSL1507              CONDUIT      0.32     0  02:14      0.11    0.00    0.52
  WSL1508              CONDUIT     24.20     0  02:29      0.95    0.68    0.59
  WSL1512              CONDUIT     24.32     0  02:33      0.69    0.17    0.54
  WSL1513              CONDUIT     24.43     0  02:33      0.73    1.44    0.74
  WSL1515              CONDUIT    233.56     0  02:51      3.64    2.28    0.64
  WSL1516              CONDUIT     49.17     0  02:42      6.48    0.17    0.51
  WSL1518              CONDUIT     42.36     0  02:26      1.23    0.83    0.74
  WSL1519              CONDUIT     42.30     0  02:26      1.28    1.05    0.72
  WSL1521              CONDUIT     42.60     0  02:25      1.36    1.22    0.69
  WSL1543              CONDUIT     42.37     0  02:26      1.24    1.32    0.74
  WSL1961              CONDUIT     33.21     0  01:09      3.07    0.07    0.55
  WSL1964              CONDUIT     48.99     0  03:23      1.38    0.27    0.81
  WSL2010              CONDUIT     95.60     0  02:45      1.41    1.22    1.00
  WSL2011              CONDUIT     95.80     0  02:45      1.41    0.62    1.00
  WSL2012              CONDUIT     96.00     0  02:45      1.41    1.46    1.00
  WSL2013              CONDUIT    108.18     0  02:26      1.59    2.69    1.00
  WSL2014              CONDUIT    145.60     0  02:52      2.15    2.32    1.00
  WSL2015              CONDUIT    145.70     0  02:52      2.15    1.96    1.00
  WSL2016              CONDUIT    165.90     0  02:52      2.44    1.91    1.00
  WSL2017              CONDUIT    166.13     0  02:53      2.45    2.02    1.00
  WSL2018              CONDUIT    189.57     0  02:52      2.98    1.13    0.98
  WSL2019              CONDUIT    191.39     0  02:54      3.05    1.13    0.98
  WSL2028              CONDUIT     95.40     0  02:45      1.41    1.02    1.00
  WSL2029              CONDUIT    166.90     0  02:53      2.50    2.11    1.00
  WSL2038              CONDUIT     21.43     0  02:20      0.88    1.07    1.00
  WSL2039              CONDUIT     21.62     0  02:21      0.90    1.11    1.00
  WSL2041              CONDUIT     21.53     0  02:20      0.88    1.06    1.00
  WSL2294              CONDUIT     78.47     0  03:11      1.81    2.64    1.00
  WSL2295              CONDUIT     78.54     0  03:11      1.84    3.53    1.00
  WSL2296              CONDUIT     94.57     0  02:29      2.24    0.53    1.00
  WSL2297              CONDUIT     94.72     0  02:29      1.40    1.82    1.00
  WSL2298              CONDUIT     94.36     0  02:29      2.64    4.34    1.00
  WSL2301              CONDUIT     94.80     0  02:29      1.40    0.87    1.00
  WSL2302              CONDUIT     95.01     0  02:29      1.40    1.17    1.00
  WSL2441              CONDUIT     78.39     0  03:11      1.80    2.01    1.00
  WSL2442              CONDUIT     48.16     0  02:09      1.45    1.23    1.00
  WSL2443              CONDUIT     48.78     0  02:08      1.47    0.76    1.00
  WSL2444              CONDUIT     48.64     0  02:08      1.72    0.77    1.00
  WSL2446              CONDUIT     38.77     0  03:59      1.61    0.67    1.00
  WSL2447              CONDUIT     38.58     0  03:59      1.54    1.98    1.00
  WSL2448              CONDUIT     38.54     0  02:05      1.42    1.08    1.00
  WSL2449              CONDUIT     38.48     0  02:04      1.35    1.34    1.00
  WSL2450              CONDUIT     39.08     0  02:06      1.35    0.81    1.00
  WSL2451              CONDUIT     39.93     0  02:06      1.32    2.60    1.00
  WSL2452              CONDUIT     40.56     0  02:06      1.33    0.77    1.00
  WSL2454              CONDUIT     41.41     0  02:06      1.46    0.97    1.00
  WSL2478              CONDUIT     42.12     0  02:07      1.41    1.49    1.00
  WSL2479              CONDUIT     33.52     0  02:06      1.25    0.64    1.00
  WSL2480              CONDUIT     46.83     0  02:22      1.41    2.17    1.00
  WSL2482              CONDUIT     46.67     0  02:22      1.40    1.21    1.00
  WSL2484              CONDUIT     39.00     0  02:21      1.68    0.55    1.00
  WSL2493              CONDUIT     48.26     0  02:09      1.11    0.81    1.00
  WSL2867              CONDUIT    211.69     0  02:44      4.59    0.44    0.56
  WSL2868              CONDUIT    195.05     0  02:45      2.52    0.37    0.81
  WSL348               CONDUIT     63.18     0  02:20      1.88    0.58    1.00
  WSL175               CONDUIT     63.60     0  02:19      2.29    2.14    1.00
  WSL1467              CONDUIT    225.53     0  02:45      2.31    1.20    1.00
  WSL1473              CONDUIT    226.96     0  02:45      2.52    0.93    0.97
  XRpipe               CONDUIT     64.14     0  02:20      2.54    0.16    1.00
  8                    CONDUIT     57.60     0  02:53      7.68    0.76    0.65
  19                   CONDUIT      0.00     0  00:00      0.00    0.00    0.00
  17                   CONDUIT      0.00     0  00:00      0.00    0.00    0.00
  4                    CONDUIT      0.00     0  00:00      0.00    0.00    0.00
  2                    CONDUIT    264.28     0  02:46      4.64    0.96    0.79
  XR-Pump-1            PUMP         8.12     0  00:08              1.00
  XR-Pump-3            PUMP         8.12     0  00:09              1.00
  XR-Pump-2            PUMP         8.12     0  00:09              1.00
  XR-Pump-4            PUMP         8.12     0  01:07              1.00
  CC-Pump-1            PUMP        17.28     0  01:20              1.00
  CC-Pump-2            PUMP         0.00     0  00:00              0.00
  JK-Pump-1            PUMP         0.00     0  00:00              0.00
  JK-Pump-2            PUMP         0.00     0  00:00              0.00
  
  
  ***************************
  Flow Classification Summary
  ***************************
  
  -------------------------------------------------------------------------------------
                      Adjusted    ---------- Fraction of Time in Flow Class ---------- 
                       /Actual         Up    Down  Sub   Sup   Up    Down  Norm  Inlet 
  Conduit               Length    Dry  Dry   Dry   Crit  Crit  Crit  Crit  Ltd   Ctrl  
  -------------------------------------------------------------------------------------
  WSL49                   1.00   0.00  0.00  0.00  1.00  0.00  0.00  0.00  0.00  0.00
  WSL1465                 1.00   0.00  0.00  0.00  1.00  0.00  0.00  0.00  0.10  0.00
  WSL1472                 1.00   0.00  0.00  0.00  1.00  0.00  0.00  0.00  0.00  0.00
  WSL1475                 1.00   0.00  0.00  0.00  0.16  0.84  0.00  0.00  0.00  0.00
  WSL1476                 1.00   0.00  0.00  0.00  1.00  0.00  0.00  0.00  0.78  0.00
  WSL1477                 1.00   0.00  0.00  0.00  0.00  1.00  0.00  0.00  0.23  0.00
  WSL1490                 1.00   0.00  0.00  0.00  1.00  0.00  0.00  0.00  0.00  0.00
  WSL1491                 1.00   0.00  0.00  0.00  1.00  0.00  0.00  0.00  0.04  0.00
  WSL1492                 1.00   0.00  0.00  0.00  1.00  0.00  0.00  0.00  0.00  0.00
  WSL1507                 1.00   0.00  0.00  0.00  1.00  0.00  0.00  0.00  0.32  0.00
  WSL1508                 1.00   0.00  0.00  0.00  1.00  0.00  0.00  0.00  0.00  0.00
  WSL1512                 1.00   0.00  0.00  0.00  1.00  0.00  0.00  0.00  0.43  0.00
  WSL1513                 1.00   0.00  0.00  0.00  1.00  0.00  0.00  0.00  0.00  0.00
  WSL1515                 1.00   0.00  0.00  0.00  0.14  0.86  0.00  0.00  0.03  0.00
  WSL1516                 1.00   0.00  0.00  0.00  0.00  1.00  0.00  0.00  0.81  0.00
  WSL1518                 1.00   0.00  0.00  0.00  1.00  0.00  0.00  0.00  0.30  0.00
  WSL1519                 1.00   0.00  0.00  0.00  1.00  0.00  0.00  0.00  0.28  0.00
  WSL1521                 1.00   0.00  0.00  0.00  1.00  0.00  0.00  0.00  0.02  0.00
  WSL1543                 1.00   0.00  0.00  0.00  1.00  0.00  0.00  0.00  0.02  0.00
  WSL1961                 1.00   0.00  0.00  0.00  0.81  0.19  0.00  0.00  0.98  0.00
  WSL1964                 1.00   0.00  0.00  0.00  1.00  0.00  0.00  0.00  0.05  0.00
  WSL2010                 1.00   0.00  0.00  0.00  1.00  0.00  0.00  0.00  0.00  0.00
  WSL2011                 1.00   0.00  0.00  0.00  1.00  0.00  0.00  0.00  0.26  0.00
  WSL2012                 1.00   0.00  0.00  0.00  1.00  0.00  0.00  0.00  0.00  0.00
  WSL2013                 1.00   0.00  0.00  0.00  1.00  0.00  0.00  0.00  0.00  0.00
  WSL2014                 1.00   0.00  0.00  0.00  1.00  0.00  0.00  0.00  0.00  0.00
  WSL2015                 1.00   0.00  0.00  0.00  1.00  0.00  0.00  0.00  0.02  0.00
  WSL2016                 1.00   0.00  0.00  0.00  1.00  0.00  0.00  0.00  0.01  0.00
  WSL2017                 1.00   0.00  0.00  0.00  1.00  0.00  0.00  0.00  0.04  0.00
  WSL2018                 1.00   0.00  0.00  0.00  0.74  0.26  0.00  0.00  0.09  0.00
  WSL2019                 1.00   0.00  0.00  0.00  0.92  0.08  0.00  0.00  0.12  0.00
  WSL2028                 1.00   0.00  0.00  0.00  1.00  0.00  0.00  0.00  0.06  0.00
  WSL2029                 1.00   0.00  0.00  0.00  1.00  0.00  0.00  0.00  0.00  0.00
  WSL2038                 1.00   0.00  0.00  0.00  1.00  0.00  0.00  0.00  0.01  0.00
  WSL2039                 1.00   0.00  0.00  0.00  1.00  0.00  0.00  0.00  0.01  0.00
  WSL2041                 1.00   0.00  0.00  0.00  1.00  0.00  0.00  0.00  0.26  0.00
  WSL2294                 1.00   0.00  0.00  0.00  1.00  0.00  0.00  0.00  0.00  0.00
  WSL2295                 1.00   0.00  0.00  0.00  1.00  0.00  0.00  0.00  0.00  0.00
  WSL2296                 1.00   0.00  0.00  0.00  0.92  0.08  0.00  0.00  0.37  0.00
  WSL2297                 1.00   0.00  0.00  0.00  1.00  0.00  0.00  0.00  0.00  0.00
  WSL2298                 1.00   0.00  0.00  0.00  0.80  0.20  0.00  0.00  0.00  0.00
  WSL2301                 1.00   0.00  0.00  0.00  1.00  0.00  0.00  0.00  0.09  0.00
  WSL2302                 1.00   0.00  0.00  0.00  1.00  0.00  0.00  0.00  0.00  0.00
  WSL2441                 1.00   0.00  0.00  0.00  1.00  0.00  0.00  0.00  0.00  0.00
  WSL2442                 1.00   0.00  0.00  0.00  1.00  0.00  0.00  0.00  0.18  0.00
  WSL2443                 1.00   0.00  0.00  0.00  1.00  0.00  0.00  0.00  0.29  0.00
  WSL2444                 1.00   0.00  0.00  0.00  0.91  0.09  0.00  0.00  0.17  0.00
  WSL2446                 1.00   0.00  0.00  0.00  0.95  0.05  0.00  0.00  0.05  0.00
  WSL2447                 1.00   0.00  0.00  0.00  1.00  0.00  0.00  0.00  0.00  0.00
  WSL2448                 1.00   0.00  0.00  0.00  1.00  0.00  0.00  0.00  0.00  0.00
  WSL2449                 1.00   0.00  0.00  0.00  1.00  0.00  0.00  0.00  0.03  0.00
  WSL2450                 1.00   0.00  0.00  0.00  1.00  0.00  0.00  0.00  0.32  0.00
  WSL2451                 1.00   0.00  0.00  0.00  1.00  0.00  0.00  0.00  0.00  0.00
  WSL2452                 1.00   0.00  0.00  0.00  1.00  0.00  0.00  0.00  0.33  0.00
  WSL2454                 1.00   0.00  0.00  0.00  1.00  0.00  0.00  0.00  0.01  0.00
  WSL2478                 1.00   0.00  0.00  0.00  1.00  0.00  0.00  0.00  0.00  0.00
  WSL2479                 1.00   0.00  0.00  0.00  1.00  0.00  0.00  0.00  0.33  0.00
  WSL2480                 1.00   0.00  0.00  0.00  1.00  0.00  0.00  0.00  0.00  0.00
  WSL2482                 1.00   0.00  0.00  0.00  1.00  0.00  0.00  0.00  0.31  0.00
  WSL2484                 1.00   0.00  0.00  0.00  1.00  0.00  0.00  0.00  0.32  0.00
  WSL2493                 1.00   0.00  0.00  0.00  1.00  0.00  0.00  0.00  0.05  0.00
  WSL2867                 1.00   0.00  0.00  0.00  0.00  1.00  0.00  0.00  0.12  0.00
  WSL2868                 1.00   0.00  0.00  0.00  0.99  0.01  0.00  0.00  0.40  0.00
  WSL348                  1.00   0.00  0.00  0.00  1.00  0.00  0.00  0.00  0.01  0.00
  WSL175                  1.00   0.00  0.00  0.00  1.00  0.00  0.00  0.00  0.00  0.00
  WSL1467                 1.00   0.00  0.00  0.00  1.00  0.00  0.00  0.00  0.06  0.00
  WSL1473                 1.00   0.00  0.00  0.00  1.00  0.00  0.00  0.00  0.05  0.00
  XRpipe                  1.00   0.00  0.00  0.00  1.00  0.00  0.00  0.00  0.01  0.00
  8                       1.00   0.18  0.00  0.00  0.00  0.82  0.00  0.00  0.06  0.00
  19                      1.00   1.00  0.00  0.00  0.00  0.00  0.00  0.00  0.00  0.00
  17                      1.00   1.00  0.00  0.00  0.00  0.00  0.00  0.00  0.00  0.00
  4                       1.00   1.00  0.00  0.00  0.00  0.00  0.00  0.00  0.00  0.00
  2                       1.00   0.00  0.00  0.00  0.00  1.00  0.00  0.00  0.17  0.00
  
  
  *************************
  Conduit Surcharge Summary
  *************************
  
  ----------------------------------------------------------------------------
                                                           Hours        Hours 
                         --------- Hours Full --------   Above Full   Capacity
  Conduit                Both Ends  Upstream  Dnstream   Normal Flow   Limited
  ----------------------------------------------------------------------------
  WSL49                       0.01      0.01      0.01      2.36         0.01
  WSL1465                     0.99      0.99      1.32      0.01         0.01
  WSL1472                     0.01      0.40      0.01      2.30         0.01
  WSL1475                     0.01      0.01      0.01      2.30         0.01
  WSL1476                     0.01      0.01      2.02      0.01         0.01
  WSL1477                     0.01      0.01      0.01      1.15         0.01
  WSL1490                     0.51      0.54      0.66      0.01         0.07
  WSL1491                     0.66      0.66      0.91      0.01         0.01
  WSL1492                     0.90      0.91      0.99      0.01         0.06
  WSL1513                     0.01      0.01      0.01      1.05         0.01
  WSL1515                     0.01      0.01      0.01      1.88         0.01
  WSL1519                     0.01      0.01      0.01      0.37         0.01
  WSL1521                     0.01      0.01      0.01      0.84         0.01
  WSL1543                     0.01      0.01      0.01      0.91         0.01
  WSL2010                     1.59      1.60      1.59      1.84         1.57
  WSL2011                     1.59      1.59      1.82      0.01         0.01
  WSL2012                     1.79      1.82      1.79      1.97         1.75
  WSL2013                     1.67      1.79      1.67      2.40         1.67
  WSL2014                     1.40      1.67      1.40      2.17         1.40
  WSL2015                     1.24      1.40      1.24      2.04         1.24
  WSL2016                     1.04      1.24      1.04      2.00         1.04
  WSL2017                     0.75      1.04      0.75      2.03         0.75
  WSL2018                     0.01      0.01      0.01      0.87         0.01
  WSL2019                     0.01      0.01      0.01      0.84         0.01
  WSL2028                     1.57      1.57      1.60      0.57         0.50
  WSL2029                     0.01      0.75      0.01      2.06         0.01
  WSL2038                     1.08      1.08      1.12      0.29         0.33
  WSL2039                     1.19      1.19      1.24      0.40         0.42
  WSL2041                     1.12      1.12      1.19      0.26         0.30
  WSL2294                     1.67      1.88      1.67      2.49         1.67
  WSL2295                     1.47      1.67      1.47      2.51         1.47
  WSL2296                     1.23      1.23      1.90      0.01         0.01
  WSL2297                     1.50      1.57      1.50      2.18         1.49
  WSL2298                     1.23      1.47      1.23      2.51         1.23
  WSL2301                     1.50      1.50      1.57      0.01         0.02
  WSL2302                     1.57      1.57      1.57      1.73         1.55
  WSL2441                     1.88      1.93      1.88      2.31         1.88
  WSL2442                     2.03      2.03      2.03      0.71         0.63
  WSL2443                     1.95      1.95      2.03      0.01         0.01
  WSL2444                     1.90      1.90      1.95      0.01         0.01
  WSL2446                     1.78      1.78      1.90      0.01         0.01
  WSL2447                     1.78      1.87      1.78      1.71         0.97
  WSL2448                     1.87      1.87      1.87      0.48         0.39
  WSL2449                     1.87      1.88      1.87      1.11         0.68
  WSL2450                     1.86      1.86      1.88      0.01         0.01
  WSL2451                     1.86      1.88      1.86      1.84         1.15
  WSL2452                     1.83      1.83      1.88      0.01         0.01
  WSL2454                     1.74      1.74      1.83      0.01         0.01
  WSL2478                     1.74      1.79      1.74      1.13         0.55
  WSL2479                     1.44      1.44      1.79      0.01         0.01
  WSL2480                     1.44      1.48      1.44      2.59         1.44
  WSL2482                     1.33      1.33      1.48      0.89         0.88
  WSL2484                     0.93      0.93      1.33      0.01         0.01
  WSL2493                     1.92      1.92      1.93      0.01         0.01
  WSL2868                     0.01      0.01      0.72      0.01         0.01
  WSL348                      3.87      3.87      3.88      0.01         0.01
  WSL175                      3.88      3.88      3.88      2.81         2.91
  WSL1467                     0.39      0.72      0.40      1.10         0.36
  WSL1473                     0.01      0.01      0.01      0.01         0.01
  XRpipe                      3.88      3.88      3.96      0.01         0.01
  
  
  ***************
  Pumping Summary
  ***************
  
  ---------------------------------------------------------------------------------------------------------
                                                  Min       Avg       Max     Total     Power    % Time Off
                        Percent   Number of      Flow      Flow      Flow    Volume     Usage    Pump Curve
  Pump                 Utilized   Start-Ups       MLD       MLD       MLD  10^6 ltr     Kw-hr    Low   High
  ---------------------------------------------------------------------------------------------------------
  XR-Pump-1               96.32           1      0.00      8.12      8.12     1.303      6.10    0.0    0.0
  XR-Pump-3               91.56          17      0.00      8.12      8.12     1.239      5.62    0.0    0.0
  XR-Pump-2               96.18           1      0.00      8.12      8.12     1.301      6.09    0.0    0.0
  XR-Pump-4               71.08           4      0.00      8.12      8.12     0.962      3.55    0.0    0.0
  CC-Pump-1               66.28           1      0.00     17.28     17.28     1.909      2.69    0.0    0.0
  CC-Pump-2                0.00           0      0.00      0.00      0.00     0.000      0.00    0.0    0.0
  JK-Pump-1                0.00           0      0.00      0.00      0.00     0.000      0.00    0.0    0.0
  JK-Pump-2                0.00           0      0.00      0.00      0.00     0.000      0.00    0.0    0.0
  
  
  ***************************
  Link Pollutant Load Summary
  ***************************
  
  ------------------------------------------------------------------------------------------
                                 COD         NH3-N            TN            TP            SS
  Link                            kg            kg            kg            kg            kg
  ------------------------------------------------------------------------------------------
  WSL49                     3557.680         0.000         0.000         0.000         0.000
  WSL1465                    883.562         0.000         0.000         0.000         0.000
  WSL1472                   3078.590         0.000         0.000         0.000         0.000
  WSL1475                   3577.351         0.000         0.000         0.000         0.000
  WSL1476                    482.359         0.000         0.000         0.000         0.000
  WSL1477                    479.930         0.000         0.000         0.000         0.000
  WSL1490                    870.852         0.000         0.000         0.000         0.000
  WSL1491                    871.219         0.000         0.000         0.000         0.000
  WSL1492                    881.445         0.000         0.000         0.000         0.000
  WSL1507                      3.770         0.000         0.000         0.000         0.000
  WSL1508                    287.235         0.000         0.000         0.000         0.000
  WSL1512                    285.856         0.000         0.000         0.000         0.000
  WSL1513                    288.116         0.000         0.000         0.000         0.000
  WSL1515                   2185.497         0.000         0.000         0.000         0.000
  WSL1516                    479.825         0.000         0.000         0.000         0.000
  WSL1518                    480.835         0.000         0.000         0.000         0.000
  WSL1519                    480.205         0.000         0.000         0.000         0.000
  WSL1521                    480.661         0.000         0.000         0.000         0.000
  WSL1543                    479.102         0.000         0.000         0.000         0.000
  WSL1961                    856.090         0.000         0.000         0.000         0.000
  WSL1964                    867.771         0.000         0.000         0.000         0.000
  WSL2010                   1126.986         0.000         0.000         0.000         0.000
  WSL2011                   1130.608         0.000         0.000         0.000         0.000
  WSL2012                   1135.188         0.000         0.000         0.000         0.000
  WSL2013                   1260.080         0.000         0.000         0.000         0.000
  WSL2014                   1715.389         0.000         0.000         0.000         0.000
  WSL2015                   1714.776         0.000         0.000         0.000         0.000
  WSL2016                   1949.475         0.000         0.000         0.000         0.000
  WSL2017                   1950.588         0.000         0.000         0.000         0.000
  WSL2018                   2180.440         0.000         0.000         0.000         0.000
  WSL2019                   2181.206         0.000         0.000         0.000         0.000
  WSL2028                   1123.064         0.000         0.000         0.000         0.000
  WSL2029                   1954.811         0.000         0.000         0.000         0.000
  WSL2038                    231.374         0.000         0.000         0.000         0.000
  WSL2039                    236.761         0.000         0.000         0.000         0.000
  WSL2041                    234.747         0.000         0.000         0.000         0.000
  WSL2294                   1109.401         0.000         0.000         0.000         0.000
  WSL2295                   1109.897         0.000         0.000         0.000         0.000
  WSL2296                   1117.790         0.000         0.000         0.000         0.000
  WSL2297                   1122.042         0.000         0.000         0.000         0.000
  WSL2298                   1113.355         0.000         0.000         0.000         0.000
  WSL2301                   1121.215         0.000         0.000         0.000         0.000
  WSL2302                   1125.537         0.000         0.000         0.000         0.000
  WSL2441                   1108.575         0.000         0.000         0.000         0.000
  WSL2442                    461.219         0.000         0.000         0.000         0.000
  WSL2443                    462.306         0.000         0.000         0.000         0.000
  WSL2444                    459.889         0.000         0.000         0.000         0.000
  WSL2446                    458.805         0.000         0.000         0.000         0.000
  WSL2447                    455.817         0.000         0.000         0.000         0.000
  WSL2448                    452.079         0.000         0.000         0.000         0.000
  WSL2449                    449.796         0.000         0.000         0.000         0.000
  WSL2450                    447.832         0.000         0.000         0.000         0.000
  WSL2451                    447.572         0.000         0.000         0.000         0.000
  WSL2452                    446.547         0.000         0.000         0.000         0.000
  WSL2454                    443.172         0.000         0.000         0.000         0.000
  WSL2478                    441.718         0.000         0.000         0.000         0.000
  WSL2479                    349.831         0.000         0.000         0.000         0.000
  WSL2480                    648.464         0.000         0.000         0.000         0.000
  WSL2482                    645.418         0.000         0.000         0.000         0.000
  WSL2484                    573.304         0.000         0.000         0.000         0.000
  WSL2493                    463.362         0.000         0.000         0.000         0.000
  WSL2867                   2185.137         0.000         0.000         0.000         0.000
  WSL2868                   2191.217         0.000         0.000         0.000         0.000
  WSL348                    1444.851         0.000         0.000         0.000         0.000
  WSL175                    1453.848         0.000         0.000         0.000         0.000
  WSL1467                   3074.526         0.000         0.000         0.000         0.000
  WSL1473                   3079.040         0.000         0.000         0.000         0.000
  XRpipe                    1468.156         0.000         0.000         0.000         0.000
  8                          387.258         0.000         0.000         0.000         0.000
  19                           0.000         0.000         0.000         0.000         0.000
  17                           0.000         0.000         0.000         0.000         0.000
  4                            0.000         0.000         0.000         0.000         0.000
  2                         3607.616         0.000         0.000         0.000         0.000
  XR-Pump-1                  226.744         0.000         0.000         0.000         0.000
  XR-Pump-3                  215.993         0.000         0.000         0.000         0.000
  XR-Pump-2                  226.430         0.000         0.000         0.000         0.000
  XR-Pump-4                  169.786         0.000         0.000         0.000         0.000
  CC-Pump-1                  334.379         0.000         0.000         0.000         0.000
  CC-Pump-2                    0.000         0.000         0.000         0.000         0.000
  JK-Pump-1                    0.000         0.000         0.000         0.000         0.000
  JK-Pump-2                    0.000         0.000         0.000         0.000         0.000
  

  Analysis begun on:  Tue Jul  2 15:38:47 2019
  Analysis ended on:  Tue Jul  2 15:38:49 2019
  Total elapsed time: 00:00:02