
  EPA STORM WATER MANAGEMENT MODEL - VERSION 5.1 (Build 5.2.0.dev1)
  --------------------------------------------------------------

  
  *********************************************************
  NOTE: The summary statistics displayed in this report are
  based on results found at every computational time step,  
  not just on results from each reporting time step.
  *********************************************************
  
  ****************
  Analysis Options
  ****************
  Flow Units ............... MLD
  Process Models:
    Rainfall/Runoff ........ YES
    RDII ................... NO
    Snowmelt ............... NO
    Groundwater ............ NO
    Flow Routing ........... YES
    Ponding Allowed ........ NO
    Water Quality .......... YES
  Infiltration Method ...... GREEN_AMPT
  Flow Routing Method ...... DYNWAVE
  Starting Date ............ 08/28/2015 08:00:00
  Ending Date .............. 08/28/2015 12:00:00
  Antecedent Dry Days ...... 4.0
  Report Time Step ......... 00:01:00
  Wet Time Step ............ 00:01:00
  Dry Time Step ............ 00:01:00
  Routing Time Step ........ 5.00 sec
  Variable Time Step ....... YES
  Maximum Trials ........... 8
  Number of Threads ........ 1
  Head Tolerance ........... 0.001500 m
  
  
  **************************        Volume         Depth
  Runoff Quantity Continuity     hectare-m            mm
  **************************     ---------       -------
  Total Precipitation ......        14.986        53.129
  Evaporation Loss .........         0.000         0.000
  Infiltration Loss ........         5.236        18.563
  Surface Runoff ...........         6.027        21.366
  Final Storage ............         3.731        13.226
  Continuity Error (%) .....        -0.051
  
  
  **************************           COD         NH3-N            TN            TP            SS
  Runoff Quality Continuity             kg            kg            kg            kg            kg
  **************************    ----------    ----------    ----------    ----------    ----------
  Initial Buildup ..........     13074.240         0.000         0.000         0.000         0.000
  Surface Buildup ..........       101.931         0.000         0.000         0.000         0.000
  Wet Deposition ...........         0.000         0.000         0.000         0.000         0.000
  Sweeping Removal .........         0.000         0.000         0.000         0.000         0.000
  Infiltration Loss ........       383.723         0.000         0.000         0.000         0.000
  BMP Removal ..............         0.000         0.000         0.000         0.000         0.000
  Surface Runoff ...........     11175.318         0.000         0.000         0.000         0.000
  Remaining Buildup ........      1626.425         0.000         0.000         0.000         0.000
  Continuity Error (%) .....        -0.071         0.000         0.000         0.000         0.000
  
  
  **************************        Volume        Volume
  Flow Routing Continuity        hectare-m      10^6 ltr
  **************************     ---------     ---------
  Dry Weather Inflow .......         0.000         0.000
  Wet Weather Inflow .......         6.015        60.146
  Groundwater Inflow .......         0.000         0.000
  RDII Inflow ..............         0.000         0.000
  External Inflow ..........         0.561         5.611
  External Outflow .........         2.809        28.094
  Flooding Loss ............         3.637        36.367
  Evaporation Loss .........         0.000         0.000
  Exfiltration Loss ........         0.000         0.000
  Initial Stored Volume ....         0.000         0.000
  Final Stored Volume ......         0.181         1.812
  Continuity Error (%) .....        -0.784
  
  
  **************************           COD         NH3-N            TN            TP            SS
  Quality Routing Continuity            kg            kg            kg            kg            kg
  **************************    ----------    ----------    ----------    ----------    ----------
  Dry Weather Inflow .......         0.000         0.000         0.000         0.000         0.000
  Wet Weather Inflow .......     11171.474         0.000         0.000         0.000         0.000
  Groundwater Inflow .......         0.000         0.000         0.000         0.000         0.000
  RDII Inflow ..............         0.000         0.000         0.000         0.000         0.000
  External Inflow ..........       936.992         0.000         0.000         0.000         0.000
  External Outflow .........      4501.756         0.000         0.000         0.000         0.000
  Flooding Loss ............      7457.218         0.000         0.000         0.000         0.000
  Exfiltration Loss ........         0.000         0.000         0.000         0.000         0.000
  Mass Reacted .............         0.000         0.000         0.000         0.000         0.000
  Initial Stored Mass ......         0.000         0.000         0.000         0.000         0.000
  Final Stored Mass ........        81.800         0.000         0.000         0.000         0.000
  Continuity Error (%) .....         0.559         0.000         0.000         0.000         0.000
  
  
  *************************
  Highest Continuity Errors
  *************************
  Node WS02006242 (1.54%)
  Node WS02006243 (1.43%)
  Node WS02006240 (1.39%)
  Node WS02006239 (1.31%)
  Node WS02003059 (1.14%)
  
  
  ***************************
  Time-Step Critical Elements
  ***************************
  Link 8 (75.61%)
  Link WSL1477 (9.68%)
  Link WSL2448 (6.16%)
  Link WSL1516 (2.79%)
  Link XRpipe (2.72%)
  
  
  ********************************
  Highest Flow Instability Indexes
  ********************************
  Link WSL1477 (63)
  Link WSL1516 (59)
  Link WSL1521 (50)
  Link WSL1476 (34)
  Link WSL2448 (23)
  
  
  *************************
  Routing Time Step Summary
  *************************
  Minimum Time Step           :     0.40 sec
  Average Time Step           :     0.91 sec
  Maximum Time Step           :     5.00 sec
  Percent in Steady State     :    -0.00
  Average Iterations per Step :     3.38
  Percent Not Converging      :    12.69
  
  
  ***************************
  Subcatchment Runoff Summary
  ***************************
  
  --------------------------------------------------------------------------------------------------------
                            Total      Total      Total      Total      Total       Total     Peak  Runoff
                           Precip      Runon       Evap      Infil     Runoff      Runoff   Runoff   Coeff
  Subcatchment                 mm         mm         mm         mm         mm    10^6 ltr      MLD
  --------------------------------------------------------------------------------------------------------
  1                         53.13     119.66       0.00      16.65     122.50        1.48    22.36   0.709
  2                         53.13       0.00       0.00      12.40      27.66        0.93    15.38   0.521
  3                         53.13       0.00       0.00      12.64      25.91        1.32    21.67   0.488
  4                         53.13       0.00       0.00      12.25      28.68        0.76    12.64   0.540
  5                         53.13      67.69       0.00      15.52      80.43        1.37    20.11   0.666
  6                         53.13       0.00       0.00      12.62      26.04        1.29    21.11   0.490
  7                         53.13       0.00       0.00      22.50      21.52       34.43   540.55   0.405
  8                         53.13       0.00       0.00      12.53      26.68        1.13    18.59   0.502
  9                         53.13      26.44       0.00      14.24      43.79        1.66    24.13   0.550
  17                        53.13       0.00       0.00      12.45      27.30        1.00    16.50   0.514
  18                        53.13       0.00       0.00      12.55      26.59        1.15    18.96   0.500
  28                        53.13     110.13       0.00      17.39     104.62        2.75    40.80   0.641
  29                        53.13      44.92       0.00      14.66      58.50        1.41    20.33   0.597
  30                        53.13     104.48       0.00      16.07     116.85        1.09    16.50   0.741
  31                        53.13       0.00       0.00      12.43      27.44        0.97    16.05   0.516
  33                        53.13       0.00       0.00      11.45      33.44        0.29     5.04   0.629
  34                        53.13      59.40       0.00      15.41      72.41        1.50    21.97   0.644
  35                        53.13       0.00       0.00      12.33      28.12        0.85    14.08   0.529
  36                        53.13      61.68       0.00      16.43      62.42        3.68    52.37   0.544
  39                        53.13       0.00       0.00      12.41      27.61        0.94    15.53   0.520
  40                        53.13      14.88       0.00      13.54      36.17        1.41    21.43   0.532
  41                        53.13       0.00       0.00      12.04      30.05        0.58     9.75   0.566
  42                        53.13       0.00       0.00      12.15      29.35        0.67    11.13   0.552
  43                        53.13       0.00       0.00      10.74      36.81        0.13     2.44   0.693
  44                        53.13    1025.95       0.00      25.83     971.29        3.59    54.03   0.900
  45                        53.13       0.00       0.00      11.58      32.74        0.34     5.79   0.616
  46                        53.13      50.40       0.00      14.96      64.73        1.39    20.09   0.625
  47                        53.13       0.00       0.00      11.64      32.43        0.36     6.16   0.610
  48                        53.13      22.74       0.00      13.30      47.10        0.74    11.35   0.621
  55                        53.13      33.93       0.00      13.25      59.91        0.50     7.76   0.688
  56                        53.13      54.60       0.00      15.16      67.94        1.45    21.22   0.631
  57                        53.13       0.00       0.00      12.63      25.99        1.30    21.32   0.489
  59                        53.13       0.00       0.00      11.42      33.58        0.28     4.90   0.632
  60                        53.13      73.94       0.00      14.27      96.61        0.50     7.92   0.760
  61                        53.13       0.00       0.00      13.21      21.04        3.79    62.15   0.396
  62                        53.13       0.00       0.00      13.23      20.86        3.96    65.02   0.393
  64                        53.13       0.00       0.00      11.70      32.10        0.39     6.57   0.604
  
  
  ****************************
  Subcatchment Washoff Summary
  ****************************
  
  ------------------------------------------------------------------------------------------
                                 COD         NH3-N            TN            TP            SS
  Subcatchment                    kg            kg            kg            kg            kg
  ------------------------------------------------------------------------------------------
  1                          175.046         0.000         0.000         0.000         0.000
  2                            0.000         0.000         0.000         0.000         0.000
  3                            0.000         0.000         0.000         0.000         0.000
  4                          123.273         0.000         0.000         0.000         0.000
  5                          230.843         0.000         0.000         0.000         0.000
  6                          225.151         0.000         0.000         0.000         0.000
  7                         6966.934         0.000         0.000         0.000         0.000
  8                          194.172         0.000         0.000         0.000         0.000
  9                          283.547         0.000         0.000         0.000         0.000
  17                         168.761         0.000         0.000         0.000         0.000
  18                         198.612         0.000         0.000         0.000         0.000
  28                         454.478         0.000         0.000         0.000         0.000
  29                         227.421         0.000         0.000         0.000         0.000
  30                         180.665         0.000         0.000         0.000         0.000
  31                         163.389         0.000         0.000         0.000         0.000
  33                          41.035         0.000         0.000         0.000         0.000
  34                         244.013         0.000         0.000         0.000         0.000
  35                         140.016         0.000         0.000         0.000         0.000
  36                         645.998         0.000         0.000         0.000         0.000
  39                         157.111         0.000         0.000         0.000         0.000
  40                         238.279         0.000         0.000         0.000         0.000
  41                          90.474         0.000         0.000         0.000         0.000
  42                         106.005         0.000         0.000         0.000         0.000
  43                          17.106         0.000         0.000         0.000         0.000
  44                         641.954         0.000         0.000         0.000         0.000
  45                          48.488         0.000         0.000         0.000         0.000
  46                         214.845         0.000         0.000         0.000         0.000
  47                          52.206         0.000         0.000         0.000         0.000
  48                         111.866         0.000         0.000         0.000         0.000
  55                          70.363         0.000         0.000         0.000         0.000
  56                         228.295         0.000         0.000         0.000         0.000
  57                         227.795         0.000         0.000         0.000         0.000
  59                          39.635         0.000         0.000         0.000         0.000
  60                          72.678         0.000         0.000         0.000         0.000
  61                         770.918         0.000         0.000         0.000         0.000
  62                         810.844         0.000         0.000         0.000         0.000
  64                          56.382         0.000         0.000         0.000         0.000
  ------------------------------------------------------------------------------------------
  System                   14618.597         0.000         0.000         0.000         0.000
  
  
  ******************
  Node Depth Summary
  ******************
  
  ---------------------------------------------------------------------------------
                                 Average  Maximum  Maximum  Time of Max    Reported
                                   Depth    Depth      HGL   Occurrence   Max Depth
  Node                 Type       Meters   Meters   Meters  days hr:min      Meters
  ---------------------------------------------------------------------------------
  WS01000070           JUNCTION     0.00     0.00     0.00     0  00:00        0.00
  WS01000323           JUNCTION     0.00     0.00     0.00     0  00:00        0.00
  WS01000533           JUNCTION     0.00     0.00     6.86     0  00:00        0.00
  WS01005172           JUNCTION     0.00     0.00     0.00     0  00:00        0.00
  WS01005181           JUNCTION     0.00     0.00     0.00     0  00:00        0.00
  WS01009841           JUNCTION     0.00     0.00     0.00     0  00:00        0.00
  WS02000078           JUNCTION     0.00     0.00     0.00     0  00:00        0.00
  WS02000112           JUNCTION     0.00     0.00     0.00     0  00:00        0.00
  WS02000136           JUNCTION     0.00     0.00     0.00     0  00:00        0.00
  WS02001211           JUNCTION     0.77     1.23     6.07     0  02:41        1.18
  WS02001212           JUNCTION     0.78     1.88     6.68     0  02:19        1.20
  WS02001213           JUNCTION     0.88     3.04     7.74     0  02:15        1.30
  WS02003059           JUNCTION     0.91     3.15     7.80     0  02:15        2.07
  WS02003060           JUNCTION     0.99     2.50     7.05     0  02:22        2.31
  WS02003066           JUNCTION     0.46     0.75     6.05     0  02:39        0.74
  WS02003067           JUNCTION     0.75     1.05     6.37     0  02:17        0.99
  WS02003071           JUNCTION     1.00     4.07     8.47     0  02:22        2.44
  WS02003072           JUNCTION     0.86     1.77     6.14     0  02:38        1.19
  WS02003073           JUNCTION     0.92     3.04     7.28     0  03:51        1.24
  WS02003076           JUNCTION     0.83     1.30     5.53     0  02:39        1.26
  WS02003077           JUNCTION     0.19     0.73     5.74     0  02:39        0.48
  WS02003078           JUNCTION     0.11     0.19     7.09     0  02:31        0.18
  WS02003079           JUNCTION     0.37     0.55     7.46     0  02:30        0.55
  WS02003093           JUNCTION     0.21     0.36     7.70     0  02:30        0.36
  WS02003094           JUNCTION     0.32     0.48     7.70     0  02:29        0.48
  WS02003098           JUNCTION     0.29     0.48     7.65     0  02:29        0.48
  WS02003099           JUNCTION     0.41     0.61     7.65     0  02:30        0.61
  WS02003102           JUNCTION     0.40     0.59     7.62     0  02:30        0.59
  WS02003103           JUNCTION     0.42     0.61     7.58     0  02:31        0.61
  WS02003104           JUNCTION     0.41     0.60     7.56     0  02:31        0.59
  WS02003106           JUNCTION     0.40     0.58     7.51     0  02:31        0.58
  WS02004050           JUNCTION     0.62     0.84     5.06     0  02:43        0.84
  WS02004053           JUNCTION     0.00     0.00     0.00     0  00:00        0.00
  WS02004136           JUNCTION     0.17     0.21     6.94     0  00:01        0.18
  WS02004139           JUNCTION     0.66     1.11     6.07     0  02:40        1.09
  WS02004401           JUNCTION     1.14     1.70     7.70     0  02:42        1.70
  WS02004402           JUNCTION     1.14     1.70     7.66     0  02:42        1.69
  WS02004403           JUNCTION     1.13     1.71     7.64     0  02:32        1.67
  WS02004404           JUNCTION     1.19     1.78     7.63     0  02:32        1.71
  WS02004405           JUNCTION     1.18     1.77     7.61     0  02:32        1.69
  WS02004406           JUNCTION     1.13     1.74     7.57     0  02:32        1.63
  WS02004407           JUNCTION     1.04     1.64     7.44     0  02:31        1.51
  WS02004409           JUNCTION     0.99     1.58     7.35     0  02:32        1.43
  WS02004410           JUNCTION     0.91     1.47     7.19     0  02:32        1.30
  WS02004411           JUNCTION     0.83     1.39     7.07     0  02:42        1.18
  WS02004412           JUNCTION     0.72     1.29     6.93     0  02:32        1.00
  WS02004413           JUNCTION     0.73     1.23     6.70     0  02:32        0.99
  WS02004997           JUNCTION     6.23     6.70     8.31     0  01:20        6.70
  WS02005192           JUNCTION     0.74     1.85     9.72     0  01:56        1.17
  WS02005193           JUNCTION     0.77     1.31     9.13     0  01:56        1.17
  WS02005196           JUNCTION     0.75     1.99     9.84     0  01:56        1.18
  WS02006109           JUNCTION     1.25     1.89     8.51     0  02:40        1.89
  WS02006110           JUNCTION     1.14     1.76     8.36     0  02:37        1.75
  WS02006111           JUNCTION     0.87     1.44     8.02     0  02:33        1.43
  WS02006112           JUNCTION     1.18     1.76     7.88     0  02:33        1.75
  WS02006113           JUNCTION     1.03     1.64     8.23     0  02:33        1.63
  WS02006115           JUNCTION     1.14     1.71     7.81     0  02:33        1.71
  WS02006116           JUNCTION     1.15     1.73     7.77     0  02:43        1.72
  WS02006183           JUNCTION     0.00     0.00     0.00     0  00:00        0.00
  WS02006228           JUNCTION     1.33     2.00     8.65     0  02:40        2.00
  WS02006229           JUNCTION     1.31     1.98     8.67     0  02:40        1.96
  WS02006230           JUNCTION     1.32     1.95     8.70     0  02:40        1.94
  WS02006231           JUNCTION     1.25     1.83     8.73     0  02:40        1.83
  WS02006232           JUNCTION     1.18     1.73     8.76     0  02:40        1.73
  WS02006234           JUNCTION     1.11     1.62     8.78     0  02:39        1.61
  WS02006235           JUNCTION     1.14     1.62     8.79     0  02:39        1.61
  WS02006238           JUNCTION     1.14     1.61     8.79     0  02:39        1.60
  WS02006239           JUNCTION     1.11     1.57     8.78     0  02:40        1.56
  WS02006242           JUNCTION     1.04     1.44     8.74     0  02:39        1.44
  WS02006240           JUNCTION     1.04     1.47     8.76     0  02:39        1.47
  WS02006243           JUNCTION     0.93     1.31     8.73     0  02:40        1.30
  WS02006245           JUNCTION     0.87     1.23     8.72     0  02:39        1.22
  WS02006247           JUNCTION     0.86     1.19     8.70     0  02:40        1.18
  WS02006248           JUNCTION     0.77     1.07     8.66     0  02:24        1.06
  WS02006249           JUNCTION     0.81     1.09     8.69     0  01:56        1.09
  WS02006251           JUNCTION     0.85     2.11     9.78     0  01:56        1.22
  WS02006253           JUNCTION     0.77     1.59     9.39     0  01:56        1.16
  WS02618401           JUNCTION     0.00     0.00     0.00     0  00:00        0.00
  WS8802               JUNCTION     0.00     0.00     4.38     0  00:00        0.00
  WSA1649              JUNCTION     0.00     0.00     0.00     0  00:00        0.00
  WSF200               JUNCTION     0.49     0.87     5.97     0  02:39        0.87
  XR-Inflow            JUNCTION     6.10     6.55     8.36     0  01:20        6.55
  WS02004114           JUNCTION     6.19     6.66     8.26     0  02:48        6.66
  outfall-2            OUTFALL      0.00     0.00     7.00     0  00:00        0.00
  outfall-5            OUTFALL      0.24     0.40     8.07     0  02:18        0.40
  outfall-14           OUTFALL      0.00     0.00     7.66     0  00:00        0.00
  outfall-16           OUTFALL      0.00     0.00     8.39     0  00:00        0.00
  12                   OUTFALL      0.61     0.95     0.95     0  02:43        0.95
  XR-storage           STORAGE      7.23     7.72     8.22     0  01:20        7.72
  CC-storage           STORAGE      3.92     5.63     8.81     0  01:33        5.63
  JK-storage           STORAGE      3.11     4.80     7.80     0  01:31        4.80
  
  
  *******************
  Node Inflow Summary
  *******************
  
  -------------------------------------------------------------------------------------------------
                                  Maximum  Maximum                  Lateral       Total        Flow
                                  Lateral    Total  Time of Max      Inflow      Inflow     Balance
                                   Inflow   Inflow   Occurrence      Volume      Volume       Error
  Node                 Type           MLD      MLD  days hr:min    10^6 ltr    10^6 ltr     Percent
  -------------------------------------------------------------------------------------------------
  WS01000070           JUNCTION      0.00     0.00     0  00:00           0           0       0.000 ltr
  WS01000323           JUNCTION      0.00     0.00     0  00:00           0           0       0.000 ltr
  WS01000533           JUNCTION      0.00     0.00     0  00:00           0           0       0.000 ltr
  WS01005172           JUNCTION      0.00     0.00     0  00:00           0           0       0.000 ltr
  WS01005181           JUNCTION      0.00     0.00     0  00:00           0           0       0.000 ltr
  WS01009841           JUNCTION      0.00     0.00     0  00:00           0           0       0.000 ltr
  WS02000078           JUNCTION      0.00     0.00     0  00:00           0           0       0.000 ltr
  WS02000112           JUNCTION      0.00     0.00     0  00:00           0           0       0.000 ltr
  WS02000136           JUNCTION      0.00     0.00     0  00:00           0           0       0.000 ltr
  WS02001211           JUNCTION      0.25    50.82     0  02:42      0.0407        4.68       1.051
  WS02001212           JUNCTION      0.21    51.68     0  03:58      0.0346        4.66       0.716
  WS02001213           JUNCTION      0.30    48.95     0  03:58      0.0489        4.68       0.831
  WS02003059           JUNCTION      0.23    48.06     0  03:57      0.0378        4.68       1.153
  WS02003060           JUNCTION      0.16   236.78     0  02:43      0.0252        20.1       0.415
  WS02003066           JUNCTION      0.08   236.45     0  02:48      0.0122        15.4       0.105
  WS02003067           JUNCTION      0.26   197.52     0  02:31      0.0395        15.4       0.145
  WS02003071           JUNCTION      0.35   237.43     0  02:43      0.0538          20       0.401
  WS02003072           JUNCTION      0.24   237.95     0  02:43      0.0382          20       0.258
  WS02003073           JUNCTION      0.07   283.68     0  02:39     0.00978        22.7       0.207
  WS02003076           JUNCTION      0.72   289.57     0  02:39        0.12        22.8       0.144
  WS02003077           JUNCTION      0.04    51.00     0  02:31      0.0059        2.77      -0.005
  WS02003078           JUNCTION      0.03    61.99     0  02:31     0.00419        2.77       0.084
  WS02003079           JUNCTION      0.04    42.82     0  02:31     0.00561        2.77       0.188
  WS02003093           JUNCTION      0.02     0.35     0  02:14     0.00306     0.00766      25.121
  WS02003094           JUNCTION     24.18    24.26     0  02:30        1.66        1.67       0.523
  WS02003098           JUNCTION      0.02    24.29     0  02:31     0.00293        1.66       0.408
  WS02003099           JUNCTION      0.07    24.51     0  02:34      0.0109        1.66       0.744
  WS02003102           JUNCTION     18.62    42.28     0  02:25        1.13        2.78       0.411
  WS02003103           JUNCTION      0.02    42.21     0  02:31     0.00239        2.77       0.263
  WS02003104           JUNCTION      0.02    42.15     0  02:32     0.00302        2.77       0.224
  WS02003106           JUNCTION      0.05    42.33     0  02:32     0.00727        2.77       0.265
  WS02004050           JUNCTION      0.72   333.83     0  02:39       0.119        22.9       0.569
  WS02004053           JUNCTION      0.00     0.00     0  00:00           0           0       0.000 ltr
  WS02004136           JUNCTION      0.44    32.92     0  01:40      0.0703        4.61       0.066
  WS02004139           JUNCTION      0.38    39.53     0  00:01      0.0619        4.67       0.690
  WS02004401           JUNCTION      0.05   102.49     0  02:40     0.00897        9.31       0.345
  WS02004402           JUNCTION      0.22   102.99     0  02:37      0.0335        9.31       0.305
  WS02004403           JUNCTION      0.23   103.20     0  02:37      0.0349        9.32       0.266
  WS02004404           JUNCTION      0.24   103.42     0  02:37      0.0365        9.33       0.187
  WS02004405           JUNCTION     12.71   114.98     0  02:37       0.773        10.1       0.255
  WS02004406           JUNCTION     40.92   150.82     0  02:41        2.76        12.8       0.320
  WS02004407           JUNCTION      0.11   150.92     0  02:41      0.0171        12.8       0.296
  WS02004409           JUNCTION     20.31   171.23     0  02:41         1.4        14.2       0.240
  WS02004410           JUNCTION      0.15   171.35     0  02:41      0.0226        14.1       0.237
  WS02004411           JUNCTION      0.25   171.56     0  02:41      0.0379        14.2       0.220
  WS02004412           JUNCTION     21.19   190.31     0  02:37         1.3        15.4       0.168
  WS02004413           JUNCTION      0.11   194.83     0  02:43      0.0172        15.4       0.159
  WS02004997           JUNCTION      0.42    63.65     0  02:25      0.0693        8.32       0.495
  WS02005192           JUNCTION     21.42    21.42     0  02:21        1.32        1.32       0.309
  WS02005193           JUNCTION      0.09    21.63     0  02:21      0.0146        1.34       0.691
  WS02005196           JUNCTION      0.12    21.54     0  02:21       0.019        1.33       0.681
  WS02006109           JUNCTION      0.08    84.45     0  03:21      0.0135        8.02       0.311
  WS02006110           JUNCTION      0.08    84.52     0  03:21      0.0132        8.01       0.316
  WS02006111           JUNCTION      0.24   101.99     0  02:40      0.0366        9.34       0.193
  WS02006112           JUNCTION      0.18   102.16     0  02:40      0.0273        9.35       0.343
  WS02006113           JUNCTION     21.82   101.79     0  02:40        1.35        9.33       0.260
  WS02006115           JUNCTION      0.08   102.24     0  02:40      0.0134        9.33       0.396
  WS02006116           JUNCTION      0.24   102.46     0  02:40       0.036        9.33       0.355
  WS02006183           JUNCTION      0.00     0.00     0  00:00           0           0       0.000 ltr
  WS02006228           JUNCTION     54.19    84.37     0  03:21        3.61        8.03       0.230
  WS02006229           JUNCTION      0.13    61.90     0  02:00        0.02        4.43       0.367
  WS02006230           JUNCTION      0.07    61.97     0  01:59      0.0116        4.43       0.533
  WS02006231           JUNCTION      0.13    61.90     0  01:59      0.0205        4.44       0.350
  WS02006232           JUNCTION     15.45    61.77     0  01:59       0.945        4.43       0.360
  WS02006234           JUNCTION      0.14    54.32     0  01:58      0.0216         3.5       0.413
  WS02006235           JUNCTION      0.14    54.17     0  01:58      0.0223        3.49       0.234
  WS02006238           JUNCTION      0.15    54.02     0  01:58      0.0235         3.7       0.281
  WS02006239           JUNCTION      0.11    25.58     0  01:43      0.0174        1.22       1.325
  WS02006242           JUNCTION      0.08    27.05     0  01:42      0.0129        1.24       1.567
  WS02006240           JUNCTION      0.06    26.34     0  01:42     0.00992        1.23       1.405
  WS02006243           JUNCTION      0.17    27.54     0  01:42      0.0269        1.25       1.454
  WS02006245           JUNCTION      0.07    27.55     0  01:41      0.0113        1.25       1.133
  WS02006247           JUNCTION     22.49    43.67     0  03:00         1.5        2.25       0.544
  WS02006248           JUNCTION      0.12    80.59     0  02:24      0.0192        5.87       0.211
  WS02006249           JUNCTION      0.19    64.12     0  02:22      0.0286        4.81       0.323
  WS02006251           JUNCTION      7.82    63.96     0  02:22       0.506         4.8       0.339
  WS02006253           JUNCTION      0.11    56.28     0  02:21      0.0173        4.31       0.233
  WS02618401           JUNCTION      0.00     0.00     0  00:00           0           0       0.000 ltr
  WS8802               JUNCTION      0.00     0.00     0  00:00           0           0       0.000 ltr
  WSA1649              JUNCTION      0.00     0.00     0  00:00           0           0       0.000 ltr
  WSF200               JUNCTION      0.14   216.04     0  02:31      0.0216        15.4       0.061
  XR-Inflow            JUNCTION    559.63   559.63     0  02:42        37.7        37.7       0.070
  WS02004114           JUNCTION      0.57    64.19     0  02:25      0.0916        8.37       0.312
  outfall-2            OUTFALL       0.00     0.00     0  00:00           0           0       0.000 ltr
  outfall-5            OUTFALL       0.00    80.17     0  02:23           0        5.34       0.000
  outfall-14           OUTFALL       0.00     0.00     0  00:00           0           0       0.000 ltr
  outfall-16           OUTFALL       0.00     0.00     0  00:00           0           0       0.000 ltr
  12                   OUTFALL       0.00   282.14     0  02:43           0        22.8       0.000
  XR-storage           STORAGE       0.00    64.21     0  02:25           0        8.34      -0.627
  CC-storage           STORAGE      63.77    63.77     0  02:23        4.07        4.07      -4.693
  JK-storage           STORAGE      66.02    66.02     0  02:23        4.13        4.13      -4.633
  
  
  **********************
  Node Surcharge Summary
  **********************
  
  Surcharging occurs when water rises above the top of the highest conduit.
  ---------------------------------------------------------------------
                                               Max. Height   Min. Depth
                                   Hours       Above Crown    Below Rim
  Node                 Type      Surcharged         Meters       Meters
  ---------------------------------------------------------------------
  WS01000070           JUNCTION        4.00          0.000        0.000
  WS01000323           JUNCTION        4.00          0.000        0.000
  WS01000533           JUNCTION        4.00          0.000        2.147
  WS01005172           JUNCTION        4.00          0.000        0.000
  WS01005181           JUNCTION        4.00          0.000        0.000
  WS01009841           JUNCTION        4.00          0.000        0.000
  WS02000078           JUNCTION        4.00          0.000        0.000
  WS02000112           JUNCTION        4.00          0.000        0.000
  WS02000136           JUNCTION        4.00          0.000        0.000
  WS02001212           JUNCTION        0.74          0.878        2.386
  WS02001213           JUNCTION        0.98          2.036        1.326
  WS02003059           JUNCTION        1.06          2.151        1.566
  WS02003060           JUNCTION        0.79          1.299        1.933
  WS02003071           JUNCTION        0.57          2.869        0.688
  WS02003072           JUNCTION        0.01          0.572        3.199
  WS02003073           JUNCTION        0.03          1.838        2.237
  WS02004053           JUNCTION        4.00          0.000        0.000
  WS02004402           JUNCTION        1.91          0.698        1.042
  WS02004403           JUNCTION        1.90          0.710        1.320
  WS02004404           JUNCTION        1.95          0.778        2.002
  WS02004405           JUNCTION        1.94          0.774        2.026
  WS02004406           JUNCTION        1.89          0.738        1.712
  WS02004407           JUNCTION        1.67          0.643        1.700
  WS02004409           JUNCTION        1.46          0.576        1.784
  WS02004410           JUNCTION        1.16          0.473        2.067
  WS02004411           JUNCTION        0.81          0.389        2.141
  WS02004412           JUNCTION        0.02          0.286        2.024
  WS02004413           JUNCTION        0.01          0.235        1.965
  WS02004997           JUNCTION        3.11          5.797        0.203
  WS02005192           JUNCTION        2.06          1.247        1.572
  WS02005193           JUNCTION        2.06          0.712        1.905
  WS02005196           JUNCTION        2.06          1.387        1.319
  WS02006109           JUNCTION        2.09          1.095        0.743
  WS02006110           JUNCTION        1.99          0.962        0.883
  WS02006111           JUNCTION        1.60          0.645        1.232
  WS02006112           JUNCTION        1.91          0.761        0.922
  WS02006113           JUNCTION        1.91          0.842        1.091
  WS02006115           JUNCTION        1.90          0.713        1.586
  WS02006116           JUNCTION        1.91          0.725        1.625
  WS02006183           JUNCTION        4.00          0.000        0.000
  WS02006228           JUNCTION        2.17          1.204        1.027
  WS02006229           JUNCTION        2.14          1.178        1.276
  WS02006231           JUNCTION        2.25          1.134        0.409
  WS02006232           JUNCTION        2.23          1.034        0.455
  WS02006234           JUNCTION        2.18          0.917        0.340
  WS02006235           JUNCTION        2.20          0.915        0.379
  WS02006238           JUNCTION        2.21          0.912        0.522
  WS02006239           JUNCTION        2.20          0.867        0.462
  WS02006242           JUNCTION        2.12          0.742        0.107
  WS02006240           JUNCTION        2.12          0.773        0.630
  WS02006243           JUNCTION        2.10          0.609        0.171
  WS02006245           JUNCTION        2.09          0.527        0.328
  WS02006247           JUNCTION        2.09          0.495        0.265
  WS02006248           JUNCTION        0.41          0.071        0.006
  WS02006249           JUNCTION        2.06          0.388        0.000
  WS02006251           JUNCTION        2.06          1.407        0.103
  WS02006253           JUNCTION        2.04          0.893        1.561
  WS02618401           JUNCTION        4.00          0.000        0.000
  WS8802               JUNCTION        4.00          0.000        4.942
  WSA1649              JUNCTION        4.00          0.000        0.000
  XR-Inflow            JUNCTION        3.08          5.650        0.000
  WS02004114           JUNCTION        3.12          5.758        0.757
  
  
  *********************
  Node Flooding Summary
  *********************
  
  Flooding refers to all water that overflows a node, whether it ponds or not.
  --------------------------------------------------------------------------
                                                             Total   Maximum
                                 Maximum   Time of Max       Flood    Ponded
                        Hours       Rate    Occurrence      Volume     Depth
  Node                 Flooded       MLD   days hr:min    10^6 ltr    Meters
  --------------------------------------------------------------------------
  WS02006249              0.41     20.00      0  02:40       0.179     0.000
  XR-Inflow               2.55    496.53      0  02:41      29.441     0.000
  XR-storage              2.66     63.99      0  01:30       3.790     0.000
  CC-storage              1.58     50.01      0  03:00       1.312     0.000
  JK-storage              1.26     55.22      0  02:50       1.647     0.000
  
  
  **********************
  Storage Volume Summary
  **********************
  
  --------------------------------------------------------------------------------------------------
                         Average     Avg  Evap Exfil       Maximum     Max    Time of Max    Maximum
                          Volume    Pcnt  Pcnt  Pcnt        Volume    Pcnt     Occurrence    Outflow
  Storage Unit           1000 m3    Full  Loss  Loss       1000 m3    Full    days hr:min        MLD
  --------------------------------------------------------------------------------------------------
  XR-storage               0.059      94     0     0         0.063     100       0  01:20      32.48
  CC-storage               0.111      70     0     0         0.159     100       0  01:33      34.56
  JK-storage               0.088      65     0     0         0.136     100       0  01:31      34.56
  
  
  ***********************
  Outfall Loading Summary
  ***********************
  
  ---------------------------------------------------------------------------------------------------------------------------------
                         Flow       Avg       Max       Total         Total         Total         Total         Total         Total
                         Freq      Flow      Flow      Volume           COD         NH3-N            TN            TP            SS
  Outfall Node           Pcnt       MLD       MLD    10^6 ltr            kg            kg            kg            kg            kg
  ---------------------------------------------------------------------------------------------------------------------------------
  outfall-2              0.00      0.00      0.00       0.000         0.000         0.000         0.000         0.000         0.000
  outfall-5             84.43     59.60     80.17       5.339       833.363         0.000         0.000         0.000         0.000
  outfall-14             0.00      0.00      0.00       0.000         0.000         0.000         0.000         0.000         0.000
  outfall-16             0.00      0.00      0.00       0.000         0.000         0.000         0.000         0.000         0.000
  12                    99.99    193.18    282.14      22.754      3668.557         0.000         0.000         0.000         0.000
  ---------------------------------------------------------------------------------------------------------------------------------
  System                36.88    252.78    361.15      28.094      4501.920         0.000         0.000         0.000         0.000
  
  
  ********************
  Link Flow Summary
  ********************
  
  -----------------------------------------------------------------------------
                                 Maximum  Time of Max   Maximum    Max/    Max/
                                  |Flow|   Occurrence   |Veloc|    Full    Full
  Link                 Type          MLD  days hr:min     m/sec    Flow   Depth
  -----------------------------------------------------------------------------
  WSL49                CONDUIT    288.85     0  02:39      3.20    3.59    1.00
  WSL1465              CONDUIT     54.41     0  03:57      1.99    0.50    1.00
  WSL1472              CONDUIT    237.73     0  02:43      2.49    2.71    1.00
  WSL1475              CONDUIT    333.11     0  02:39      3.64    3.55    0.72
  WSL1476              CONDUIT     66.68     0  02:39      1.88    0.32    0.96
  WSL1477              CONDUIT     61.97     0  02:31      3.99    2.45    0.61
  WSL1490              CONDUIT     51.48     0  03:58      1.60    0.83    1.00
  WSL1491              CONDUIT     48.67     0  03:58      1.86    0.28    1.00
  WSL1492              CONDUIT     47.83     0  03:57      1.71    0.74    1.00
  WSL1507              CONDUIT      0.33     0  02:14      0.11    0.00    0.53
  WSL1508              CONDUIT     24.28     0  02:31      0.95    0.69    0.60
  WSL1512              CONDUIT     24.45     0  02:34      0.69    0.17    0.54
  WSL1513              CONDUIT     24.55     0  02:34      0.73    1.44    0.75
  WSL1515              CONDUIT    236.37     0  02:48      3.64    2.31    0.67
  WSL1516              CONDUIT     50.97     0  02:31      6.43    0.18    0.64
  WSL1518              CONDUIT     42.20     0  02:31      1.23    0.83    0.75
  WSL1519              CONDUIT     42.29     0  02:32      1.27    1.05    0.73
  WSL1521              CONDUIT     42.79     0  02:31      1.34    1.23    0.71
  WSL1543              CONDUIT     42.13     0  02:32      1.23    1.31    0.75
  WSL1961              CONDUIT     39.15     0  00:01      3.75    0.08    0.59
  WSL1964              CONDUIT     50.58     0  02:42      1.79    0.27    0.95
  WSL2010              CONDUIT    103.00     0  02:37      1.52    1.32    1.00
  WSL2011              CONDUIT    103.21     0  02:37      1.52    0.66    1.00
  WSL2012              CONDUIT    103.50     0  02:37      1.53    1.58    1.00
  WSL2013              CONDUIT    114.90     0  02:37      1.69    2.85    1.00
  WSL2014              CONDUIT    150.82     0  02:41      2.22    2.41    1.00
  WSL2015              CONDUIT    150.94     0  02:41      2.22    2.03    1.00
  WSL2016              CONDUIT    171.22     0  02:41      2.52    1.97    1.00
  WSL2017              CONDUIT    171.34     0  02:41      2.52    2.08    1.00
  WSL2018              CONDUIT    194.73     0  02:43      3.01    1.16    1.00
  WSL2019              CONDUIT    197.29     0  02:31      3.11    1.17    1.00
  WSL2028              CONDUIT    102.79     0  02:37      1.51    1.10    1.00
  WSL2029              CONDUIT    172.10     0  02:59      2.58    2.18    1.00
  WSL2038              CONDUIT     21.43     0  02:21      0.88    1.07    1.00
  WSL2039              CONDUIT     21.62     0  02:21      1.29    1.11    1.00
  WSL2041              CONDUIT     21.54     0  02:21      1.00    1.06    1.00
  WSL2294              CONDUIT     84.45     0  03:21      1.94    2.84    1.00
  WSL2295              CONDUIT     84.53     0  03:21      1.95    3.80    1.00
  WSL2296              CONDUIT    102.00     0  02:40      2.35    0.57    1.00
  WSL2297              CONDUIT    102.16     0  02:40      1.51    1.96    1.00
  WSL2298              CONDUIT    101.78     0  02:40      2.66    4.68    1.00
  WSL2301              CONDUIT    102.25     0  02:40      1.51    0.94    1.00
  WSL2302              CONDUIT    102.44     0  02:40      1.51    1.26    1.00
  WSL2441              CONDUIT     84.37     0  03:21      1.94    2.16    1.00
  WSL2442              CONDUIT     61.78     0  02:00      1.86    1.58    1.00
  WSL2443              CONDUIT     61.90     0  01:59      1.86    0.97    1.00
  WSL2444              CONDUIT     61.77     0  01:59      1.86    0.98    1.00
  WSL2446              CONDUIT     54.32     0  01:58      1.76    0.93    1.00
  WSL2447              CONDUIT     54.18     0  01:58      1.71    2.79    1.00
  WSL2448              CONDUIT     54.03     0  01:58      1.62    1.52    1.00
  WSL2449              CONDUIT     24.89     0  01:43      0.90    0.87    1.00
  WSL2450              CONDUIT     25.47     0  01:43      1.04    0.53    1.00
  WSL2451              CONDUIT     26.28     0  01:42      1.02    1.71    1.00
  WSL2452              CONDUIT     26.97     0  01:42      1.14    0.52    1.00
  WSL2454              CONDUIT     27.37     0  01:42      1.34    0.64    1.00
  WSL2478              CONDUIT     27.48     0  01:41      1.31    0.97    1.00
  WSL2479              CONDUIT     43.66     0  03:00      1.31    0.83    1.00
  WSL2480              CONDUIT     64.13     0  02:22      1.93    2.97    1.00
  WSL2482              CONDUIT     63.96     0  02:22      1.92    1.67    1.00
  WSL2484              CONDUIT     56.29     0  02:21      1.69    0.79    1.00
  WSL2493              CONDUIT     61.87     0  02:00      1.42    1.04    1.00
  WSL2867              CONDUIT    215.92     0  02:31      4.60    0.44    0.66
  WSL2868              CONDUIT    203.13     0  02:43      2.50    0.39    0.86
  WSL348               CONDUIT     63.24     0  02:25      1.88    0.58    1.00
  WSL175               CONDUIT     63.65     0  02:25      2.57    2.14    1.00
  WSL1467              CONDUIT    237.12     0  02:43      2.43    1.26    1.00
  WSL1473              CONDUIT    242.31     0  02:43      2.63    0.99    1.00
  XRpipe               CONDUIT     64.21     0  02:25      8.80    0.16    1.00
  8                    CONDUIT     80.17     0  02:23      7.96    1.06    1.00
  19                   CONDUIT      0.00     0  00:00      0.00    0.00    0.00
  17                   CONDUIT      0.00     0  00:00      0.00    0.00    0.00
  4                    CONDUIT      0.00     0  00:00      0.00    0.00    0.00
  2                    CONDUIT    282.14     0  02:43      4.65    1.02    0.89
  XR-Pump-1            PUMP         8.12     0  00:01              1.00
  XR-Pump-3            PUMP         8.12     0  00:01              1.00
  XR-Pump-2            PUMP         8.12     0  00:01              1.00
  XR-Pump-4            PUMP         8.12     0  00:01              1.00
  CC-Pump-1            PUMP        17.28     0  02:00              1.00
  CC-Pump-2            PUMP        17.28     0  02:00              1.00
  JK-Pump-1            PUMP        17.28     0  01:50              1.00
  JK-Pump-2            PUMP        17.28     0  01:40              1.00
  
  
  ***************************
  Flow Classification Summary
  ***************************
  
  -------------------------------------------------------------------------------------
                      Adjusted    ---------- Fraction of Time in Flow Class ---------- 
                       /Actual         Up    Down  Sub   Sup   Up    Down  Norm  Inlet 
  Conduit               Length    Dry  Dry   Dry   Crit  Crit  Crit  Crit  Ltd   Ctrl  
  -------------------------------------------------------------------------------------
  WSL49                   1.00   0.00  0.00  0.00  0.99  0.01  0.00  0.00  0.00  0.00
  WSL1465                 1.00   0.00  0.00  0.00  1.00  0.00  0.00  0.00  0.05  0.00
  WSL1472                 1.00   0.00  0.00  0.00  1.00  0.00  0.00  0.00  0.00  0.00
  WSL1475                 1.00   0.00  0.00  0.00  0.17  0.83  0.00  0.00  0.00  0.00
  WSL1476                 1.00   0.00  0.00  0.00  1.00  0.00  0.00  0.00  0.73  0.00
  WSL1477                 1.00   0.00  0.00  0.00  0.00  1.00  0.00  0.00  0.25  0.00
  WSL1490                 1.00   0.00  0.00  0.00  1.00  0.00  0.00  0.00  0.00  0.00
  WSL1491                 1.00   0.00  0.00  0.00  1.00  0.00  0.00  0.00  0.08  0.00
  WSL1492                 1.00   0.00  0.00  0.00  1.00  0.00  0.00  0.00  0.01  0.00
  WSL1507                 1.00   0.00  0.00  0.00  1.00  0.00  0.00  0.00  0.32  0.00
  WSL1508                 1.00   0.00  0.00  0.00  1.00  0.00  0.00  0.00  0.00  0.00
  WSL1512                 1.00   0.00  0.00  0.00  1.00  0.00  0.00  0.00  0.43  0.00
  WSL1513                 1.00   0.00  0.00  0.00  1.00  0.00  0.00  0.00  0.00  0.00
  WSL1515                 1.00   0.00  0.00  0.00  0.17  0.83  0.00  0.00  0.02  0.00
  WSL1516                 1.00   0.00  0.00  0.00  0.00  1.00  0.00  0.00  0.77  0.00
  WSL1518                 1.00   0.00  0.00  0.00  1.00  0.00  0.00  0.00  0.30  0.00
  WSL1519                 1.00   0.00  0.00  0.00  1.00  0.00  0.00  0.00  0.28  0.00
  WSL1521                 1.00   0.00  0.00  0.00  1.00  0.00  0.00  0.00  0.02  0.00
  WSL1543                 1.00   0.00  0.00  0.00  1.00  0.00  0.00  0.00  0.02  0.00
  WSL1961                 1.00   0.00  0.00  0.00  0.79  0.21  0.00  0.00  0.99  0.00
  WSL1964                 1.00   0.00  0.00  0.00  1.00  0.00  0.00  0.00  0.10  0.00
  WSL2010                 1.00   0.00  0.00  0.00  1.00  0.00  0.00  0.00  0.00  0.00
  WSL2011                 1.00   0.00  0.00  0.00  1.00  0.00  0.00  0.00  0.18  0.00
  WSL2012                 1.00   0.00  0.00  0.00  1.00  0.00  0.00  0.00  0.00  0.00
  WSL2013                 1.00   0.00  0.00  0.00  1.00  0.00  0.00  0.00  0.00  0.00
  WSL2014                 1.00   0.00  0.00  0.00  1.00  0.00  0.00  0.00  0.00  0.00
  WSL2015                 1.00   0.00  0.00  0.00  1.00  0.00  0.00  0.00  0.02  0.00
  WSL2016                 1.00   0.00  0.00  0.00  1.00  0.00  0.00  0.00  0.03  0.00
  WSL2017                 1.00   0.00  0.00  0.00  1.00  0.00  0.00  0.00  0.04  0.00
  WSL2018                 1.00   0.00  0.00  0.00  0.71  0.29  0.00  0.00  0.06  0.00
  WSL2019                 1.00   0.00  0.00  0.00  0.89  0.11  0.00  0.00  0.12  0.00
  WSL2028                 1.00   0.00  0.00  0.00  1.00  0.00  0.00  0.00  0.06  0.00
  WSL2029                 1.00   0.00  0.00  0.00  0.99  0.01  0.00  0.00  0.00  0.00
  WSL2038                 1.00   0.00  0.00  0.00  1.00  0.00  0.00  0.00  0.01  0.00
  WSL2039                 1.00   0.00  0.00  0.00  0.98  0.02  0.00  0.00  0.01  0.00
  WSL2041                 1.00   0.00  0.00  0.00  1.00  0.00  0.00  0.00  0.14  0.00
  WSL2294                 1.00   0.00  0.00  0.00  1.00  0.00  0.00  0.00  0.00  0.00
  WSL2295                 1.00   0.00  0.00  0.00  1.00  0.00  0.00  0.00  0.00  0.00
  WSL2296                 1.00   0.00  0.00  0.00  0.91  0.09  0.00  0.00  0.38  0.00
  WSL2297                 1.00   0.00  0.00  0.00  1.00  0.00  0.00  0.00  0.00  0.00
  WSL2298                 1.00   0.00  0.00  0.00  0.81  0.19  0.00  0.00  0.00  0.00
  WSL2301                 1.00   0.00  0.00  0.00  1.00  0.00  0.00  0.00  0.09  0.00
  WSL2302                 1.00   0.00  0.00  0.00  1.00  0.00  0.00  0.00  0.00  0.00
  WSL2441                 1.00   0.00  0.00  0.00  1.00  0.00  0.00  0.00  0.00  0.00
  WSL2442                 1.00   0.00  0.00  0.00  1.00  0.00  0.00  0.00  0.08  0.00
  WSL2443                 1.00   0.00  0.00  0.00  1.00  0.00  0.00  0.00  0.25  0.00
  WSL2444                 1.00   0.00  0.00  0.00  0.89  0.11  0.00  0.00  0.15  0.00
  WSL2446                 1.00   0.00  0.00  0.00  0.94  0.06  0.00  0.00  0.13  0.00
  WSL2447                 1.00   0.00  0.00  0.00  1.00  0.00  0.00  0.00  0.00  0.00
  WSL2448                 1.00   0.00  0.00  0.00  1.00  0.00  0.00  0.00  0.01  0.00
  WSL2449                 1.00   0.00  0.00  0.00  1.00  0.00  0.00  0.00  0.04  0.00
  WSL2450                 1.00   0.00  0.00  0.00  1.00  0.00  0.00  0.00  0.25  0.00
  WSL2451                 1.00   0.00  0.00  0.00  1.00  0.00  0.00  0.00  0.00  0.00
  WSL2452                 1.00   0.00  0.00  0.00  1.00  0.00  0.00  0.00  0.32  0.00
  WSL2454                 1.00   0.00  0.00  0.00  1.00  0.00  0.00  0.00  0.03  0.00
  WSL2478                 1.00   0.00  0.00  0.00  1.00  0.00  0.00  0.00  0.00  0.00
  WSL2479                 1.00   0.00  0.00  0.00  1.00  0.00  0.00  0.00  0.29  0.00
  WSL2480                 1.00   0.00  0.00  0.00  1.00  0.00  0.00  0.00  0.00  0.00
  WSL2482                 1.00   0.00  0.00  0.00  1.00  0.00  0.00  0.00  0.27  0.00
  WSL2484                 1.00   0.00  0.00  0.00  1.00  0.00  0.00  0.00  0.32  0.00
  WSL2493                 1.00   0.00  0.00  0.00  1.00  0.00  0.00  0.00  0.05  0.00
  WSL2867                 1.00   0.00  0.00  0.00  0.00  1.00  0.00  0.00  0.13  0.00
  WSL2868                 1.00   0.00  0.00  0.00  0.95  0.05  0.00  0.00  0.39  0.00
  WSL348                  1.00   0.00  0.00  0.00  0.99  0.01  0.00  0.00  0.01  0.00
  WSL175                  1.00   0.00  0.00  0.00  0.96  0.04  0.00  0.00  0.01  0.00
  WSL1467                 1.00   0.00  0.00  0.00  1.00  0.00  0.00  0.00  0.07  0.00
  WSL1473                 1.00   0.00  0.00  0.00  1.00  0.00  0.00  0.00  0.04  0.00
  XRpipe                  1.00   0.00  0.00  0.00  0.97  0.03  0.00  0.00  0.04  0.00
  8                       1.00   0.16  0.00  0.00  0.08  0.76  0.00  0.00  0.01  0.00
  19                      1.00   1.00  0.00  0.00  0.00  0.00  0.00  0.00  0.00  0.00
  17                      1.00   1.00  0.00  0.00  0.00  0.00  0.00  0.00  0.00  0.00
  4                       1.00   1.00  0.00  0.00  0.00  0.00  0.00  0.00  0.00  0.00
  2                       1.00   0.00  0.00  0.00  0.00  1.00  0.00  0.00  0.28  0.00
  
  
  *************************
  Conduit Surcharge Summary
  *************************
  
  ----------------------------------------------------------------------------
                                                           Hours        Hours 
                         --------- Hours Full --------   Above Full   Capacity
  Conduit                Both Ends  Upstream  Dnstream   Normal Flow   Limited
  ----------------------------------------------------------------------------
  WSL49                       0.01      0.03      0.01      2.28         0.01
  WSL1465                     1.06      1.06      1.50      0.01         0.01
  WSL1472                     0.01      0.57      0.01      2.23         0.01
  WSL1475                     0.01      0.01      0.01      2.22         0.01
  WSL1476                     0.01      0.01      2.10      0.01         0.01
  WSL1477                     0.01      0.01      0.01      1.15         0.01
  WSL1490                     0.64      0.65      0.74      0.01         0.06
  WSL1491                     0.74      0.74      0.98      0.01         0.01
  WSL1492                     0.97      0.98      1.06      0.01         0.04
  WSL1513                     0.01      0.01      0.01      1.06         0.01
  WSL1515                     0.01      0.01      0.01      2.00         0.01
  WSL1516                     0.01      0.01      0.01      0.01         0.01
  WSL1519                     0.01      0.01      0.01      0.37         0.01
  WSL1521                     0.01      0.01      0.01      0.83         0.01
  WSL1543                     0.01      0.01      0.01      0.91         0.01
  WSL1961                     0.01      0.01      0.05      0.01         0.01
  WSL1964                     0.01      0.01      0.01      0.01         0.01
  WSL2010                     1.90      1.91      1.90      2.05         1.87
  WSL2011                     1.90      1.90      1.95      0.01         0.01
  WSL2012                     1.94      1.95      1.94      2.18         1.90
  WSL2013                     1.89      1.94      1.89      2.30         1.89
  WSL2014                     1.67      1.89      1.67      2.24         1.67
  WSL2015                     1.46      1.67      1.46      2.19         1.46
  WSL2016                     1.16      1.46      1.16      2.14         1.16
  WSL2017                     0.81      1.16      0.81      2.17         0.81
  WSL2018                     0.01      0.02      0.01      0.89         0.01
  WSL2019                     0.01      0.01      0.01      0.88         0.01
  WSL2028                     1.90      1.91      1.91      1.09         0.98
  WSL2029                     0.02      0.81      0.02      2.18         0.02
  WSL2038                     2.06      2.06      2.06      0.29         0.35
  WSL2039                     2.06      2.06      2.06      0.40         0.41
  WSL2041                     2.06      2.06      2.06      0.26         0.31
  WSL2294                     1.99      2.09      1.99      2.36         1.99
  WSL2295                     1.91      1.99      1.91      2.39         1.91
  WSL2296                     1.60      1.60      2.07      0.01         0.01
  WSL2297                     1.90      1.91      1.90      2.28         1.90
  WSL2298                     1.60      1.91      1.60      2.42         1.60
  WSL2301                     1.90      1.90      1.91      0.01         0.08
  WSL2302                     1.91      1.91      1.91      2.03         1.90
  WSL2441                     2.09      2.17      2.09      2.33         2.09
  WSL2442                     2.26      2.28      2.26      1.29         1.25
  WSL2443                     2.25      2.25      2.28      0.01         0.01
  WSL2444                     2.23      2.23      2.25      0.01         0.01
  WSL2446                     2.18      2.18      2.23      0.01         0.01
  WSL2447                     2.18      2.20      2.18      1.61         1.52
  WSL2448                     2.20      2.21      2.20      1.12         1.13
  WSL2449                     2.20      2.20      2.21      0.01         0.01
  WSL2450                     2.12      2.12      2.20      0.01         0.01
  WSL2451                     2.12      2.12      2.12      0.58         0.32
  WSL2452                     2.10      2.10      2.12      0.01         0.01
  WSL2454                     2.09      2.09      2.10      0.01         0.01
  WSL2478                     2.09      2.09      2.09      0.01         0.01
  WSL2479                     2.06      2.06      2.09      0.01         0.01
  WSL2480                     2.06      2.06      2.06      2.14         2.05
  WSL2482                     2.06      2.06      2.06      1.89         1.90
  WSL2484                     2.04      2.04      2.06      0.01         0.01
  WSL2493                     2.14      2.14      2.17      0.16         0.18
  WSL2868                     0.01      0.01      0.79      0.01         0.01
  WSL348                      3.08      3.08      3.11      0.01         0.01
  WSL175                      3.11      3.11      3.12      2.78         2.77
  WSL1467                     0.56      0.79      0.57      1.24         0.53
  WSL1473                     0.01      0.01      0.03      0.01         0.01
  XRpipe                      3.12      3.12      3.48      0.01         0.01
  8                           0.41      0.41      0.51      0.51         0.41
  2                           0.01      0.01      0.01      0.04         0.01
  
  
  ***************
  Pumping Summary
  ***************
  
  ---------------------------------------------------------------------------------------------------------
                                                  Min       Avg       Max     Total     Power    % Time Off
                        Percent   Number of      Flow      Flow      Flow    Volume     Usage    Pump Curve
  Pump                 Utilized   Start-Ups       MLD       MLD       MLD  10^6 ltr     Kw-hr    Low   High
  ---------------------------------------------------------------------------------------------------------
  XR-Pump-1               95.80           3      0.00      7.93      8.12     1.178      7.17    0.0    0.0
  XR-Pump-3               87.46           3      0.00      7.92      8.12     1.065      6.12    0.0    0.0
  XR-Pump-2               91.63           3      0.00      7.93      8.12     1.121      7.00    0.0    0.0
  XR-Pump-4               95.80           3      0.00      7.93      8.12     1.178      7.17    0.0    0.0
  CC-Pump-1               54.15           1      0.00     15.39     17.28     1.380      5.37    0.0    0.0
  CC-Pump-2               74.96           2      0.00     14.62     17.28     1.578      6.51    0.0    0.0
  JK-Pump-1               54.15           2      0.00     13.03     17.28     1.140      7.72    0.0    0.0
  JK-Pump-2               70.82           2      0.00     14.21     17.28     1.548      8.84    0.0    0.0
  
  
  ***************************
  Link Pollutant Load Summary
  ***************************
  
  ------------------------------------------------------------------------------------------
                                 COD         NH3-N            TN            TP            SS
  Link                            kg            kg            kg            kg            kg
  ------------------------------------------------------------------------------------------
  WSL49                     3616.163         0.000         0.000         0.000         0.000
  WSL1465                    789.444         0.000         0.000         0.000         0.000
  WSL1472                   3135.384         0.000         0.000         0.000         0.000
  WSL1475                   3636.839         0.000         0.000         0.000         0.000
  WSL1476                    483.699         0.000         0.000         0.000         0.000
  WSL1477                    481.906         0.000         0.000         0.000         0.000
  WSL1490                    777.722         0.000         0.000         0.000         0.000
  WSL1491                    778.495         0.000         0.000         0.000         0.000
  WSL1492                    787.270         0.000         0.000         0.000         0.000
  WSL1507                      3.829         0.000         0.000         0.000         0.000
  WSL1508                    287.288         0.000         0.000         0.000         0.000
  WSL1512                    285.934         0.000         0.000         0.000         0.000
  WSL1513                    288.240         0.000         0.000         0.000         0.000
  WSL1515                   2335.206         0.000         0.000         0.000         0.000
  WSL1516                    480.017         0.000         0.000         0.000         0.000
  WSL1518                    481.059         0.000         0.000         0.000         0.000
  WSL1519                    480.589         0.000         0.000         0.000         0.000
  WSL1521                    481.135         0.000         0.000         0.000         0.000
  WSL1543                    479.395         0.000         0.000         0.000         0.000
  WSL1961                    764.437         0.000         0.000         0.000         0.000
  WSL1964                    775.129         0.000         0.000         0.000         0.000
  WSL2010                   1270.641         0.000         0.000         0.000         0.000
  WSL2011                   1274.723         0.000         0.000         0.000         0.000
  WSL2012                   1279.683         0.000         0.000         0.000         0.000
  WSL2013                   1405.143         0.000         0.000         0.000         0.000
  WSL2014                   1860.991         0.000         0.000         0.000         0.000
  WSL2015                   1860.779         0.000         0.000         0.000         0.000
  WSL2016                   2095.946         0.000         0.000         0.000         0.000
  WSL2017                   2097.558         0.000         0.000         0.000         0.000
  WSL2018                   2328.599         0.000         0.000         0.000         0.000
  WSL2019                   2329.934         0.000         0.000         0.000         0.000
  WSL2028                   1266.228         0.000         0.000         0.000         0.000
  WSL2029                   2102.351         0.000         0.000         0.000         0.000
  WSL2038                    231.611         0.000         0.000         0.000         0.000
  WSL2039                    238.177         0.000         0.000         0.000         0.000
  WSL2041                    235.512         0.000         0.000         0.000         0.000
  WSL2294                   1250.531         0.000         0.000         0.000         0.000
  WSL2295                   1251.433         0.000         0.000         0.000         0.000
  WSL2296                   1259.554         0.000         0.000         0.000         0.000
  WSL2297                   1264.213         0.000         0.000         0.000         0.000
  WSL2298                   1255.131         0.000         0.000         0.000         0.000
  WSL2301                   1263.873         0.000         0.000         0.000         0.000
  WSL2302                   1268.717         0.000         0.000         0.000         0.000
  WSL2441                   1249.178         0.000         0.000         0.000         0.000
  WSL2442                    600.913         0.000         0.000         0.000         0.000
  WSL2443                    602.692         0.000         0.000         0.000         0.000
  WSL2444                    599.714         0.000         0.000         0.000         0.000
  WSL2446                    598.152         0.000         0.000         0.000         0.000
  WSL2447                    594.743         0.000         0.000         0.000         0.000
  WSL2448                    590.808         0.000         0.000         0.000         0.000
  WSL2449                    207.690         0.000         0.000         0.000         0.000
  WSL2450                    212.751         0.000         0.000         0.000         0.000
  WSL2451                    218.389         0.000         0.000         0.000         0.000
  WSL2452                    222.918         0.000         0.000         0.000         0.000
  WSL2454                    223.496         0.000         0.000         0.000         0.000
  WSL2478                    222.879         0.000         0.000         0.000         0.000
  WSL2479                    284.984         0.000         0.000         0.000         0.000
  WSL2480                    783.631         0.000         0.000         0.000         0.000
  WSL2482                    813.941         0.000         0.000         0.000         0.000
  WSL2484                    740.955         0.000         0.000         0.000         0.000
  WSL2493                    603.399         0.000         0.000         0.000         0.000
  WSL2867                   2335.248         0.000         0.000         0.000         0.000
  WSL2868                   2341.995         0.000         0.000         0.000         0.000
  WSL348                    1444.204         0.000         0.000         0.000         0.000
  WSL175                    1453.279         0.000         0.000         0.000         0.000
  WSL1467                   3130.924         0.000         0.000         0.000         0.000
  WSL1473                   3136.355         0.000         0.000         0.000         0.000
  XRpipe                    1467.314         0.000         0.000         0.000         0.000
  8                          833.363         0.000         0.000         0.000         0.000
  19                           0.000         0.000         0.000         0.000         0.000
  17                           0.000         0.000         0.000         0.000         0.000
  4                            0.000         0.000         0.000         0.000         0.000
  2                         3668.557         0.000         0.000         0.000         0.000
  XR-Pump-1                  193.102         0.000         0.000         0.000         0.000
  XR-Pump-3                  178.510         0.000         0.000         0.000         0.000
  XR-Pump-2                  183.688         0.000         0.000         0.000         0.000
  XR-Pump-4                  193.102         0.000         0.000         0.000         0.000
  CC-Pump-1                  236.406         0.000         0.000         0.000         0.000
  CC-Pump-2                  265.139         0.000         0.000         0.000         0.000
  JK-Pump-1                  168.137         0.000         0.000         0.000         0.000
  JK-Pump-2                  284.226         0.000         0.000         0.000         0.000
  

  Analysis begun on:  Tue Jul  2 15:39:07 2019
  Analysis ended on:  Tue Jul  2 15:39:08 2019
  Total elapsed time: 00:00:01