
  EPA STORM WATER MANAGEMENT MODEL - VERSION 5.1 (Build 5.3.0.dev0)
  --------------------------------------------------------------

  
  *********************************************************
  NOTE: The summary statistics displayed in this report are
  based on results found at every computational time step,  
  not just on results from each reporting time step.
  *********************************************************
  
  ****************
  Analysis Options
  ****************
  Flow Units ............... MLD
  Process Models:
    Rainfall/Runoff ........ YES
    RDII ................... NO
    Snowmelt ............... NO
    Groundwater ............ NO
    Flow Routing ........... YES
    Ponding Allowed ........ NO
    Water Quality .......... YES
  Infiltration Method ...... GREEN_AMPT
  Flow Routing Method ...... DYNWAVE
  Surcharge Method ......... EXTRAN
  Starting Date ............ 08/28/2015 08:00:00
  Ending Date .............. 08/28/2015 12:00:00
  Antecedent Dry Days ...... 4.0
  Report Time Step ......... 00:01:00
  Wet Time Step ............ 00:01:00
  Dry Time Step ............ 00:01:00
  Routing Time Step ........ 5.00 sec
  Variable Time Step ....... YES
  Maximum Trials ........... 8
  Number of Threads ........ 1
  Head Tolerance ........... 0.001500 m
  
  
  **************************        Volume         Depth
  Runoff Quantity Continuity     hectare-m            mm
  **************************     ---------       -------
  Total Precipitation ......         0.284         4.598
  Evaporation Loss .........         0.000         0.000
  Infiltration Loss ........         0.171         2.764
  Surface Runoff ...........         0.019         0.309
  Final Storage ............         0.094         1.525
  Continuity Error (%) .....         0.000
  
  
  **************************           COD         NH3-N            TN            TP            SS
  Runoff Quality Continuity             kg            kg            kg            kg            kg
  **************************    ----------    ----------    ----------    ----------    ----------
  Initial Buildup ..........      2504.640         0.000         0.000         0.000         0.000
  Surface Buildup ..........        20.162         0.000         0.000         0.000         0.000
  Wet Deposition ...........         0.000         0.000         0.000         0.000         0.000
  Sweeping Removal .........         0.000         0.000         0.000         0.000         0.000
  Infiltration Loss ........         3.845         0.000         0.000         0.000         0.000
  BMP Removal ..............         0.000         0.000         0.000         0.000         0.000
  Surface Runoff ...........        12.044         0.000         0.000         0.000         0.000
  Remaining Buildup ........      2508.308         0.000         0.000         0.000         0.000
  Continuity Error (%) .....         0.024         0.000         0.000         0.000         0.000
  
  
  **************************        Volume        Volume
  Flow Routing Continuity        hectare-m      10^6 ltr
  **************************     ---------     ---------
  Dry Weather Inflow .......         0.000         0.000
  Wet Weather Inflow .......         0.018         0.183
  Groundwater Inflow .......         0.000         0.000
  RDII Inflow ..............         0.000         0.000
  External Inflow ..........         0.047         0.474
  External Outflow .........         0.039         0.388
  Flooding Loss ............         0.000         0.000
  Evaporation Loss .........         0.000         0.000
  Exfiltration Loss ........         0.000         0.000
  Initial Stored Volume ....         0.000         0.000
  Final Stored Volume ......         0.046         0.463
  Continuity Error (%) .....       -29.568
  
  
  **************************           COD         NH3-N            TN            TP            SS
  Quality Routing Continuity            kg            kg            kg            kg            kg
  **************************    ----------    ----------    ----------    ----------    ----------
  Dry Weather Inflow .......         0.000         0.000         0.000         0.000         0.000
  Wet Weather Inflow .......        11.250         0.000         0.000         0.000         0.000
  Groundwater Inflow .......         0.000         0.000         0.000         0.000         0.000
  RDII Inflow ..............         0.000         0.000         0.000         0.000         0.000
  External Inflow ..........        79.187         0.000         0.000         0.000         0.000
  External Outflow .........        20.708         0.000         0.000         0.000         0.000
  Flooding Loss ............         0.000         0.000         0.000         0.000         0.000
  Exfiltration Loss ........         0.000         0.000         0.000         0.000         0.000
  Mass Reacted .............         0.000         0.000         0.000         0.000         0.000
  Initial Stored Mass ......         0.000         0.000         0.000         0.000         0.000
  Final Stored Mass ........        36.665         0.000         0.000         0.000         0.000
  Continuity Error (%) .....        36.561         0.000         0.000         0.000         0.000
  
  
  *************************
  Highest Continuity Errors
  *************************
  Node WS02006115 (15.27%)
  Node WS02004401 (14.85%)
  Node WS02006116 (14.77%)
  Node WS02005196 (12.96%)
  Node WS02006112 (12.08%)
  
  
  ***************************
  Time-Step Critical Elements
  ***************************
  Link 8 (67.49%)
  Link WSL2448 (25.04%)
  Link 17 (1.45%)
  
  
  ********************************
  Highest Flow Instability Indexes
  ********************************
  Link WSL2301 (7)
  Link WSL2302 (7)
  Link WSL2297 (7)
  Link WSL2296 (6)
  Link WSL2298 (5)
  
  
  *************************
  Routing Time Step Summary
  *************************
  Minimum Time Step           :     0.64 sec
  Average Time Step           :     1.61 sec
  Maximum Time Step           :     5.00 sec
  Percent in Steady State     :     0.00
  Average Iterations per Step :     2.26
  Percent Not Converging      :     1.30
  
  
  ***************************
  Subcatchment Runoff Summary
  ***************************
  
  ------------------------------------------------------------------------------------------------------------------------------
                            Total      Total      Total      Total     Imperv       Perv      Total       Total     Peak  Runoff
                           Precip      Runon       Evap      Infil     Runoff     Runoff     Runoff      Runoff   Runoff   Coeff
  Subcatchment                 mm         mm         mm         mm         mm         mm         mm    10^6 ltr      MLD
  ------------------------------------------------------------------------------------------------------------------------------
  1                          4.60       1.50       0.00       2.92       1.02       0.04       1.06        0.01     0.58   0.173
  2                          4.60       0.00       0.00       2.72       0.63       0.01       0.63        0.02     0.91   0.138
  3                          4.60       0.00       0.00       2.72       0.57       0.00       0.58        0.03     1.31   0.126
  35                         4.60       0.00       0.00       2.72       0.64       0.01       0.65        0.02     0.83   0.141
  36                         4.60       1.06       0.00       2.87       0.70       0.01       0.71        0.04     2.08   0.126
  40                         4.60       0.34       0.00       2.77       0.66       0.01       0.67        0.03     1.16   0.135
  41                         4.60       0.00       0.00       2.72       0.70       0.01       0.70        0.01     0.55   0.153
  42                         4.60       0.00       0.00       2.72       0.68       0.01       0.68        0.02     0.64   0.149
  43                         4.60       0.00       0.00       2.72       0.87       0.02       0.88        0.00     0.11   0.192
  44                         4.60      11.81       0.00       3.86       3.33       1.11       4.44        0.02     1.03   0.271
  45                         4.60       0.00       0.00       2.72       0.77       0.01       0.78        0.01     0.31   0.169
  46                         4.60       0.96       0.00       2.86       0.85       0.02       0.87        0.02     0.82   0.156
  47                         4.60       0.00       0.00       2.72       0.76       0.01       0.77        0.01     0.33   0.168
  48                         4.60       0.53       0.00       2.80       0.81       0.02       0.83        0.01     0.54   0.162
  55                         4.60       0.79       0.00       2.84       0.94       0.03       0.97        0.01     0.32   0.180
  56                         4.60       1.00       0.00       2.87       0.85       0.02       0.87        0.02     0.83   0.156
  57                         4.60       0.00       0.00       2.72       0.58       0.00       0.58        0.03     1.29   0.126
  59                         4.60       0.00       0.00       2.72       0.79       0.01       0.80        0.01     0.25   0.174
  60                         4.60       1.71       0.00       2.97       1.18       0.07       1.25        0.01     0.27   0.198
  61                         4.60       0.00       0.00       2.72       0.41       0.00       0.41        0.07     3.71   0.089
  64                         4.60       0.00       0.00       2.72       0.75       0.01       0.76        0.01     0.35   0.166
  
  
  ****************************
  Subcatchment Washoff Summary
  ****************************
  
  ------------------------------------------------------------------------------------------
                                 COD         NH3-N            TN            TP            SS
  Subcatchment                    kg            kg            kg            kg            kg
  ------------------------------------------------------------------------------------------
  1                            0.264         0.000         0.000         0.000         0.000
  2                            0.000         0.000         0.000         0.000         0.000
  3                            0.000         0.000         0.000         0.000         0.000
  35                           1.093         0.000         0.000         0.000         0.000
  36                           3.319         0.000         0.000         0.000         0.000
  40                           1.652         0.000         0.000         0.000         0.000
  41                           0.803         0.000         0.000         0.000         0.000
  42                           0.900         0.000         0.000         0.000         0.000
  43                           0.213         0.000         0.000         0.000         0.000
  44                           6.617         0.000         0.000         0.000         0.000
  45                           0.500         0.000         0.000         0.000         0.000
  46                           1.610         0.000         0.000         0.000         0.000
  47                           0.530         0.000         0.000         0.000         0.000
  48                           0.992         0.000         0.000         0.000         0.000
  55                           0.704         0.000         0.000         0.000         0.000
  56                           1.657         0.000         0.000         0.000         0.000
  57                           1.504         0.000         0.000         0.000         0.000
  59                           0.427         0.000         0.000         0.000         0.000
  60                           0.756         0.000         0.000         0.000         0.000
  61                           2.955         0.000         0.000         0.000         0.000
  64                           0.563         0.000         0.000         0.000         0.000
  ------------------------------------------------------------------------------------------
  System                      27.057         0.000         0.000         0.000         0.000
  
  
  ******************
  Node Depth Summary
  ******************
  
  ---------------------------------------------------------------------------------
                                 Average  Maximum  Maximum  Time of Max    Reported
                                   Depth    Depth      HGL   Occurrence   Max Depth
  Node                 Type       Meters   Meters   Meters  days hr:min      Meters
  ---------------------------------------------------------------------------------
  WS01000070           JUNCTION     0.00     0.00     0.00     0  00:00        0.00
  WS01000323           JUNCTION     0.00     0.00     0.00     0  00:00        0.00
  WS01000533           JUNCTION     0.00     0.00     6.86     0  00:00        0.00
  WS01005172           JUNCTION     0.00     0.00     0.00     0  00:00        0.00
  WS01005181           JUNCTION     0.00     0.00     0.00     0  00:00        0.00
  WS01009841           JUNCTION     0.00     0.00     0.00     0  00:00        0.00
  WS02000078           JUNCTION     0.00     0.00     0.00     0  00:00        0.00
  WS02000112           JUNCTION     0.00     0.00     0.00     0  00:00        0.00
  WS02000136           JUNCTION     0.00     0.00     0.00     0  00:00        0.00
  WS02004053           JUNCTION     0.00     0.00     0.00     0  00:00        0.00
  WS02004401           JUNCTION     1.89     2.29     8.29     0  02:04        2.29
  WS02005192           JUNCTION     0.31     0.45     8.32     0  01:31        0.45
  WS02005193           JUNCTION     0.36     0.49     8.31     0  01:30        0.49
  WS02005196           JUNCTION     0.33     0.47     8.32     0  01:31        0.46
  WS02006109           JUNCTION     1.32     1.68     8.30     0  02:00        1.67
  WS02006110           JUNCTION     1.33     1.70     8.30     0  02:00        1.69
  WS02006111           JUNCTION     1.34     1.71     8.29     0  02:00        1.71
  WS02006112           JUNCTION     1.77     2.17     8.29     0  02:00        2.17
  WS02006113           JUNCTION     1.34     1.71     8.30     0  02:00        1.70
  WS02006115           JUNCTION     1.79     2.19     8.29     0  02:00        2.19
  WS02006116           JUNCTION     1.85     2.25     8.29     0  02:00        2.25
  WS02006183           JUNCTION     0.00     0.00     0.00     0  00:00        0.00
  WS02006228           JUNCTION     1.29     1.65     8.30     0  02:00        1.64
  WS02006229           JUNCTION     1.25     1.60     8.29     0  02:00        1.60
  WS02006230           JUNCTION     1.20     1.55     8.30     0  01:31        1.54
  WS02006231           JUNCTION     1.07     1.40     8.30     0  01:31        1.39
  WS02006232           JUNCTION     0.96     1.27     8.30     0  01:31        1.26
  WS02006234           JUNCTION     0.86     1.13     8.29     0  02:00        1.13
  WS02006235           JUNCTION     0.86     1.13     8.30     0  02:00        1.12
  WS02006238           JUNCTION     0.85     1.12     8.30     0  02:00        1.11
  WS02006239           JUNCTION     0.83     1.09     8.30     0  02:00        1.08
  WS02006242           JUNCTION     0.76     1.00     8.30     0  02:00        0.99
  WS02006240           JUNCTION     0.76     1.01     8.30     0  02:00        1.00
  WS02006243           JUNCTION     0.66     0.88     8.30     0  02:00        0.87
  WS02006245           JUNCTION     0.61     0.81     8.30     0  02:00        0.81
  WS02006247           JUNCTION     0.60     0.79     8.30     0  02:00        0.79
  WS02006248           JUNCTION     0.53     0.71     8.30     0  02:00        0.71
  WS02006249           JUNCTION     0.53     0.70     8.30     0  02:00        0.70
  WS02006251           JUNCTION     0.48     0.64     8.31     0  01:30        0.64
  WS02006253           JUNCTION     0.38     0.51     8.31     0  01:30        0.51
  WS02618401           JUNCTION     0.00     0.00     0.00     0  00:00        0.00
  WSA1649              JUNCTION     0.00     0.00     0.00     0  00:00        0.00
  outfall-5            OUTFALL      0.07     0.11     7.77     0  02:00        0.11
  outfall-14           OUTFALL      0.05     0.09     7.75     0  02:04        0.09
  outfall-16           OUTFALL      0.00     0.00     8.39     0  00:00        0.00
  CC-storage           STORAGE      0.00     0.00     3.18     0  00:00        0.00
  
  
  *******************
  Node Inflow Summary
  *******************
  
  -------------------------------------------------------------------------------------------------
                                  Maximum  Maximum                  Lateral       Total        Flow
                                  Lateral    Total  Time of Max      Inflow      Inflow     Balance
                                   Inflow   Inflow   Occurrence      Volume      Volume       Error
  Node                 Type           MLD      MLD  days hr:min    10^6 ltr    10^6 ltr     Percent
  -------------------------------------------------------------------------------------------------
  WS01000070           JUNCTION      0.00     0.00     0  00:00           0           0       0.000 ltr
  WS01000323           JUNCTION      0.00     0.00     0  00:00           0           0       0.000 ltr
  WS01000533           JUNCTION      0.00     0.00     0  00:00           0           0       0.000 ltr
  WS01005172           JUNCTION      0.00     0.00     0  00:00           0           0       0.000 ltr
  WS01005181           JUNCTION      0.00     0.00     0  00:00           0           0       0.000 ltr
  WS01009841           JUNCTION      0.00     0.00     0  00:00           0           0       0.000 ltr
  WS02000078           JUNCTION      0.00     0.00     0  00:00           0           0       0.000 ltr
  WS02000112           JUNCTION      0.00     0.00     0  00:00           0           0       0.000 ltr
  WS02000136           JUNCTION      0.00     0.00     0  00:00           0           0       0.000 ltr
  WS02004053           JUNCTION      0.00     0.00     0  00:00           0           0       0.000 ltr
  WS02004401           JUNCTION      0.05     7.69     0  02:04     0.00465        0.19      17.445
  WS02005192           JUNCTION      1.38     1.98     0  01:29      0.0378      0.0389       7.222
  WS02005193           JUNCTION      0.09     4.73     0  01:29     0.00788      0.0628      13.188
  WS02005196           JUNCTION      0.12     3.51     0  01:29      0.0104      0.0519      14.892
  WS02006109           JUNCTION      0.08     6.34     0  00:30     0.00721       0.286       9.235
  WS02006110           JUNCTION      0.08     6.42     0  00:29     0.00704       0.268      10.087
  WS02006111           JUNCTION      0.24     7.44     0  00:43      0.0204       0.275       8.128
  WS02006112           JUNCTION      0.18     8.30     0  00:30      0.0151       0.269      13.737
  WS02006113           JUNCTION      1.45     6.99     0  02:04      0.0429       0.281       9.195
  WS02006115           JUNCTION      0.08     8.01     0  00:36      0.0072       0.247      18.023
  WS02006116           JUNCTION      0.24     7.64     0  02:04      0.0201       0.232      17.336
  WS02006183           JUNCTION      0.00     0.00     0  00:00           0           0       0.000 ltr
  WS02006228           JUNCTION      1.17     6.26     0  00:15      0.0314       0.302       6.371
  WS02006229           JUNCTION      0.13     6.14     0  00:13       0.011       0.291       5.893
  WS02006230           JUNCTION      0.07     6.06     0  00:12     0.00618         0.3       9.229
  WS02006231           JUNCTION      0.13     5.98     0  00:47      0.0113       0.303       5.308
  WS02006232           JUNCTION      0.98     5.82     0  00:12      0.0279       0.309       5.278
  WS02006234           JUNCTION      0.14     5.74     0  00:11      0.0119       0.294       4.912
  WS02006235           JUNCTION      0.14     5.60     0  00:11      0.0123       0.288       2.864
  WS02006238           JUNCTION      0.15     5.46     0  00:11       0.013       0.285       3.682
  WS02006239           JUNCTION      0.11     5.34     0  00:10      0.0095       0.286       5.669
  WS02006242           JUNCTION      0.08     5.21     0  01:06     0.00692         0.3       6.539
  WS02006240           JUNCTION      0.06     5.24     0  00:09     0.00523        0.29       5.997
  WS02006243           JUNCTION      0.17     5.35     0  01:10      0.0149       0.308       5.891
  WS02006245           JUNCTION      0.07     5.36     0  01:11     0.00603       0.304       4.543
  WS02006247           JUNCTION      0.71     5.59     0  01:13      0.0261       0.308       3.832
  WS02006248           JUNCTION      0.12    12.90     0  02:00      0.0105       0.525       2.055
  WS02006249           JUNCTION      0.19    12.73     0  02:00      0.0159       0.525       2.860
  WS02006251           JUNCTION      0.38    12.57     0  02:00      0.0129       0.523       2.830
  WS02006253           JUNCTION      0.11    12.25     0  02:04     0.00941       0.528       1.393
  WS02618401           JUNCTION      0.00     0.00     0  00:00           0           0       0.000 ltr
  WSA1649              JUNCTION      0.00     0.00     0  00:00           0           0       0.000 ltr
  outfall-5            OUTFALL       0.00    11.49     0  02:00           0       0.235       0.000
  outfall-14           OUTFALL       0.00     7.68     0  02:04           0       0.153       0.000
  outfall-16           OUTFALL       0.00     0.00     0  00:00           0           0       0.000 ltr
  CC-storage           STORAGE       5.31     5.31     0  02:00       0.234       0.234     -50.000
  
  
  **********************
  Node Surcharge Summary
  **********************
  
  Surcharging occurs when water rises above the top of the highest conduit.
  ---------------------------------------------------------------------
                                               Max. Height   Min. Depth
                                   Hours       Above Crown    Below Rim
  Node                 Type      Surcharged         Meters       Meters
  ---------------------------------------------------------------------
  WS01000070           JUNCTION        2.07          0.000        0.000
  WS01000323           JUNCTION        2.07          0.000        0.000
  WS01000533           JUNCTION        2.07          0.000        2.147
  WS01005172           JUNCTION        2.07          0.000        0.000
  WS01005181           JUNCTION        2.07          0.000        0.000
  WS01009841           JUNCTION        2.07          0.000        0.000
  WS02000078           JUNCTION        2.07          0.000        0.000
  WS02000112           JUNCTION        2.07          0.000        0.000
  WS02000136           JUNCTION        2.07          0.000        0.000
  WS02004053           JUNCTION        2.07          0.000        0.000
  WS02006109           JUNCTION        1.04          0.877        0.961
  WS02006110           JUNCTION        1.06          0.897        0.948
  WS02006111           JUNCTION        1.07          0.914        0.963
  WS02006112           JUNCTION        1.27          1.172        0.511
  WS02006113           JUNCTION        1.06          0.906        1.027
  WS02006115           JUNCTION        1.29          1.190        1.109
  WS02006116           JUNCTION        1.35          1.248        1.102
  WS02006183           JUNCTION        2.07          0.000        0.000
  WS02006228           JUNCTION        1.03          0.846        1.385
  WS02006229           JUNCTION        1.00          0.805        1.649
  WS02006231           JUNCTION        0.93          0.696        0.847
  WS02006232           JUNCTION        0.84          0.565        0.924
  WS02006234           JUNCTION        0.76          0.435        0.822
  WS02006235           JUNCTION        0.76          0.426        0.868
  WS02006238           JUNCTION        0.75          0.416        1.018
  WS02006239           JUNCTION        0.74          0.386        0.943
  WS02006242           JUNCTION        0.69          0.297        0.552
  WS02006240           JUNCTION        0.69          0.306        1.097
  WS02006243           JUNCTION        0.62          0.177        0.603
  WS02006245           JUNCTION        0.60          0.108        0.747
  WS02006247           JUNCTION        0.60          0.087        0.673
  WS02618401           JUNCTION        2.07          0.000        0.000
  WSA1649              JUNCTION        2.07          0.000        0.000
  
  
  *********************
  Node Flooding Summary
  *********************
  
  No nodes were flooded.
  
  
  **********************
  Storage Volume Summary
  **********************
  
  --------------------------------------------------------------------------------------------------
                         Average     Avg  Evap Exfil       Maximum     Max    Time of Max    Maximum
                          Volume    Pcnt  Pcnt  Pcnt        Volume    Pcnt     Occurrence    Outflow
  Storage Unit           1000 m3    Full  Loss  Loss       1000 m3    Full    days hr:min        MLD
  --------------------------------------------------------------------------------------------------
  CC-storage               0.000       0     0     0         0.000       0       0  00:00      10.62
  
  
  ***********************
  Outfall Loading Summary
  ***********************
  
  ---------------------------------------------------------------------------------------------------------------------------------
                         Flow       Avg       Max       Total         Total         Total         Total         Total         Total
                         Freq      Flow      Flow      Volume           COD         NH3-N            TN            TP            SS
  Outfall Node           Pcnt       MLD       MLD    10^6 ltr            kg            kg            kg            kg            kg
  ---------------------------------------------------------------------------------------------------------------------------------
  outfall-5             68.98      9.60     11.49       0.235         3.983         0.000         0.000         0.000         0.000
  outfall-14            68.51      6.26      7.68       0.153        16.730         0.000         0.000         0.000         0.000
  outfall-16             0.00      0.00      0.00       0.000         0.000         0.000         0.000         0.000         0.000
  ---------------------------------------------------------------------------------------------------------------------------------
  System                45.83     15.86     19.14       0.388        20.713         0.000         0.000         0.000         0.000
  
  
  ********************
  Link Flow Summary
  ********************
  
  -----------------------------------------------------------------------------
                                 Maximum  Time of Max   Maximum    Max/    Max/
                                  |Flow|   Occurrence   |Veloc|    Full    Full
  Link                 Type          MLD  days hr:min     m/sec    Flow   Depth
  -----------------------------------------------------------------------------
  WSL2038              CONDUIT      1.91     0  01:31      0.23    0.10    0.76
  WSL2039              CONDUIT      4.63     0  01:29      0.43    0.24    0.83
  WSL2041              CONDUIT      2.92     0  01:29      0.23    0.14    0.79
  WSL2294              CONDUIT      6.34     0  00:29      0.65    0.21    1.00
  WSL2295              CONDUIT      6.42     0  00:28      0.72    0.29    1.00
  WSL2296              CONDUIT      8.12     0  00:30      1.08    0.05    1.00
  WSL2297              CONDUIT      7.35     0  02:04      0.57    0.14    1.00
  WSL2298              CONDUIT      6.99     0  02:04      1.20    0.32    1.00
  WSL2301              CONDUIT      7.43     0  02:04      0.38    0.07    1.00
  WSL2302              CONDUIT      7.64     0  02:04      0.23    0.09    1.00
  WSL2441              CONDUIT      6.26     0  00:30      0.72    0.16    1.00
  WSL2442              CONDUIT      6.01     0  00:13      0.89    0.15    1.00
  WSL2443              CONDUIT      5.99     0  00:12      1.02    0.09    1.00
  WSL2444              CONDUIT      5.85     0  00:47      1.18    0.09    1.00
  WSL2446              CONDUIT      5.74     0  00:12      1.14    0.10    1.00
  WSL2447              CONDUIT      5.60     0  00:11      0.91    0.29    1.00
  WSL2448              CONDUIT      5.46     0  00:11      0.76    0.15    1.00
  WSL2449              CONDUIT      5.31     0  00:11      0.71    0.19    1.00
  WSL2450              CONDUIT      5.23     0  00:10      0.84    0.11    1.00
  WSL2451              CONDUIT      5.18     0  00:09      0.76    0.34    1.00
  WSL2452              CONDUIT      5.13     0  01:06      0.86    0.10    1.00
  WSL2454              CONDUIT      5.18     0  01:10      0.95    0.12    1.00
  WSL2478              CONDUIT      5.29     0  01:11      0.86    0.19    1.00
  WSL2479              CONDUIT      5.34     0  01:13      0.83    0.10    1.00
  WSL2480              CONDUIT     12.79     0  02:00      0.85    0.59    1.00
  WSL2482              CONDUIT     12.56     0  02:00      0.86    0.33    0.95
  WSL2484              CONDUIT     12.20     0  02:00      1.35    0.17    0.82
  WSL2493              CONDUIT      6.08     0  00:15      0.78    0.10    1.00
  8                    CONDUIT     11.49     0  02:00      5.04    0.15    0.26
  19                   CONDUIT      0.00     0  00:00      0.00    0.00    0.00
  17                   CONDUIT      7.68     0  02:04      4.53    0.10    0.21
  CC-Pump-1            PUMP         5.31     0  02:00              0.31
  CC-Pump-2            PUMP         5.31     0  02:00              0.31
  
  
  ***************************
  Flow Classification Summary
  ***************************
  
  -------------------------------------------------------------------------------------
                      Adjusted    ---------- Fraction of Time in Flow Class ---------- 
                       /Actual         Up    Down  Sub   Sup   Up    Down  Norm  Inlet 
  Conduit               Length    Dry  Dry   Dry   Crit  Crit  Crit  Crit  Ltd   Ctrl  
  -------------------------------------------------------------------------------------
  WSL2038                 1.00   0.00  0.00  0.00  1.00  0.00  0.00  0.00  0.00  0.00
  WSL2039                 1.00   0.00  0.00  0.00  1.00  0.00  0.00  0.00  0.00  0.00
  WSL2041                 1.00   0.00  0.00  0.00  1.00  0.00  0.00  0.00  0.00  0.00
  WSL2294                 1.00   0.00  0.00  0.00  1.00  0.00  0.00  0.00  0.00  0.00
  WSL2295                 1.00   0.00  0.00  0.00  1.00  0.00  0.00  0.00  0.00  0.00
  WSL2296                 1.00   0.00  0.00  0.00  0.99  0.01  0.00  0.00  0.22  0.00
  WSL2297                 1.00   0.00  0.00  0.00  1.00  0.00  0.00  0.00  0.00  0.00
  WSL2298                 1.00   0.00  0.00  0.00  0.94  0.06  0.00  0.00  0.00  0.00
  WSL2301                 1.00   0.00  0.00  0.00  1.00  0.00  0.00  0.00  0.07  0.00
  WSL2302                 1.00   0.00  0.00  0.00  1.00  0.00  0.00  0.00  0.02  0.00
  WSL2441                 1.00   0.00  0.00  0.00  1.00  0.00  0.00  0.00  0.00  0.00
  WSL2442                 1.00   0.00  0.00  0.00  1.00  0.00  0.00  0.00  0.03  0.00
  WSL2443                 1.00   0.00  0.00  0.00  0.99  0.01  0.00  0.00  0.11  0.00
  WSL2444                 1.00   0.00  0.00  0.00  0.85  0.15  0.00  0.00  0.07  0.00
  WSL2446                 1.00   0.00  0.00  0.00  0.83  0.17  0.00  0.00  0.37  0.00
  WSL2447                 1.00   0.00  0.00  0.00  1.00  0.00  0.00  0.00  0.00  0.00
  WSL2448                 1.00   0.00  0.00  0.00  1.00  0.00  0.00  0.00  0.00  0.00
  WSL2449                 1.00   0.00  0.00  0.00  1.00  0.00  0.00  0.00  0.04  0.00
  WSL2450                 1.00   0.00  0.00  0.00  1.00  0.00  0.00  0.00  0.04  0.00
  WSL2451                 1.00   0.00  0.00  0.00  1.00  0.00  0.00  0.00  0.00  0.00
  WSL2452                 1.00   0.00  0.00  0.00  1.00  0.00  0.00  0.00  0.49  0.00
  WSL2454                 1.00   0.00  0.00  0.00  1.00  0.00  0.00  0.00  0.02  0.00
  WSL2478                 1.00   0.00  0.00  0.00  1.00  0.00  0.00  0.00  0.00  0.00
  WSL2479                 1.00   0.00  0.00  0.00  1.00  0.00  0.00  0.00  0.01  0.00
  WSL2480                 1.00   0.00  0.00  0.00  1.00  0.00  0.00  0.00  0.00  0.00
  WSL2482                 1.00   0.00  0.00  0.00  1.00  0.00  0.00  0.00  0.01  0.00
  WSL2484                 1.00   0.00  0.00  0.00  1.00  0.00  0.00  0.00  0.03  0.00
  WSL2493                 1.00   0.00  0.00  0.00  1.00  0.00  0.00  0.00  0.07  0.00
  8                       1.00   0.31  0.00  0.00  0.00  0.69  0.00  0.00  0.02  0.00
  19                      1.00   1.00  0.00  0.00  0.00  0.00  0.00  0.00  0.00  0.00
  17                      1.00   0.31  0.00  0.00  0.00  0.69  0.00  0.00  0.00  0.00
  
  
  *************************
  Conduit Surcharge Summary
  *************************
  
  ----------------------------------------------------------------------------
                                                           Hours        Hours 
                         --------- Hours Full --------   Above Full   Capacity
  Conduit                Both Ends  Upstream  Dnstream   Normal Flow   Limited
  ----------------------------------------------------------------------------
  WSL2294                     1.04      1.04      1.06      0.01         0.01
  WSL2295                     1.06      1.06      1.06      0.01         0.01
  WSL2296                     1.07      1.07      1.47      0.01         0.01
  WSL2297                     1.27      1.27      1.29      0.01         0.01
  WSL2298                     1.06      1.06      1.07      0.01         0.01
  WSL2301                     1.29      1.29      1.35      0.01         0.01
  WSL2302                     1.35      1.35      1.38      0.01         0.01
  WSL2441                     1.03      1.03      1.04      0.01         0.01
  WSL2442                     1.03      1.03      1.06      0.01         0.01
  WSL2443                     0.93      0.93      1.03      0.01         0.01
  WSL2444                     0.84      0.84      0.93      0.01         0.01
  WSL2446                     0.76      0.76      0.84      0.01         0.01
  WSL2447                     0.76      0.76      0.76      0.01         0.01
  WSL2448                     0.75      0.75      0.76      0.01         0.01
  WSL2449                     0.74      0.74      0.75      0.01         0.01
  WSL2450                     0.69      0.69      0.74      0.01         0.01
  WSL2451                     0.69      0.69      0.69      0.01         0.01
  WSL2452                     0.62      0.62      0.69      0.01         0.01
  WSL2454                     0.60      0.60      0.62      0.01         0.01
  WSL2478                     0.60      0.60      0.60      0.01         0.01
  WSL2479                     0.22      0.22      0.60      0.01         0.01
  WSL2480                     0.01      0.01      0.22      0.01         0.01
  WSL2493                     1.00      1.00      1.03      0.01         0.01
  
  
  ***************
  Pumping Summary
  ***************
  
  ---------------------------------------------------------------------------------------------------------
                                                  Min       Avg       Max     Total     Power    % Time Off
                        Percent   Number of      Flow      Flow      Flow    Volume     Usage    Pump Curve
  Pump                 Utilized   Start-Ups       MLD       MLD       MLD  10^6 ltr     Kw-hr    Low   High
  ---------------------------------------------------------------------------------------------------------
  CC-Pump-1              100.00           1      0.00      3.65      5.31     0.234      3.14    0.0    0.0
  CC-Pump-2              100.00           1      0.00      3.65      5.31     0.234      3.14    0.0    0.0
  
  
  ***************************
  Link Pollutant Load Summary
  ***************************
  
  ------------------------------------------------------------------------------------------
                                 COD         NH3-N            TN            TP            SS
  Link                            kg            kg            kg            kg            kg
  ------------------------------------------------------------------------------------------
  WSL2038                      3.035         0.000         0.000         0.000         0.000
  WSL2039                      4.877         0.000         0.000         0.000         0.000
  WSL2041                      4.371         0.000         0.000         0.000         0.000
  WSL2294                     22.409         0.000         0.000         0.000         0.000
  WSL2295                     20.577         0.000         0.000         0.000         0.000
  WSL2296                     23.248         0.000         0.000         0.000         0.000
  WSL2297                     22.329         0.000         0.000         0.000         0.000
  WSL2298                     20.514         0.000         0.000         0.000         0.000
  WSL2301                     22.276         0.000         0.000         0.000         0.000
  WSL2302                     21.924         0.000         0.000         0.000         0.000
  WSL2441                     24.575         0.000         0.000         0.000         0.000
  WSL2442                     19.001         0.000         0.000         0.000         0.000
  WSL2443                     18.650         0.000         0.000         0.000         0.000
  WSL2444                     17.953         0.000         0.000         0.000         0.000
  WSL2446                     17.540         0.000         0.000         0.000         0.000
  WSL2447                     16.842         0.000         0.000         0.000         0.000
  WSL2448                     15.461         0.000         0.000         0.000         0.000
  WSL2449                     13.874         0.000         0.000         0.000         0.000
  WSL2450                     12.846         0.000         0.000         0.000         0.000
  WSL2451                     12.501         0.000         0.000         0.000         0.000
  WSL2452                     12.264         0.000         0.000         0.000         0.000
  WSL2454                     10.590         0.000         0.000         0.000         0.000
  WSL2478                      9.922         0.000         0.000         0.000         0.000
  WSL2479                      7.837         0.000         0.000         0.000         0.000
  WSL2480                      9.896         0.000         0.000         0.000         0.000
  WSL2482                      7.461         0.000         0.000         0.000         0.000
  WSL2484                      6.137         0.000         0.000         0.000         0.000
  WSL2493                     19.607         0.000         0.000         0.000         0.000
  8                            3.983         0.000         0.000         0.000         0.000
  19                           0.000         0.000         0.000         0.000         0.000
  17                          16.730         0.000         0.000         0.000         0.000
  CC-Pump-1                    0.000         0.000         0.000         0.000         0.000
  CC-Pump-2                    0.000         0.000         0.000         0.000         0.000
  

  Analysis begun on:  Wed Jan  1 18:26:21 2020
  Analysis ended on:  Wed Jan  1 18:26:21 2020
  Total elapsed time: < 1 sec