
  EPA STORM WATER MANAGEMENT MODEL - VERSION 5.1 (Build 5.3.0.dev0)
  --------------------------------------------------------------

  
  *********************************************************
  NOTE: The summary statistics displayed in this report are
  based on results found at every computational time step,  
  not just on results from each reporting time step.
  *********************************************************
  
  ****************
  Analysis Options
  ****************
  Flow Units ............... MLD
  Process Models:
    Rainfall/Runoff ........ YES
    RDII ................... NO
    Snowmelt ............... NO
    Groundwater ............ NO
    Flow Routing ........... YES
    Ponding Allowed ........ NO
    Water Quality .......... YES
  Infiltration Method ...... GREEN_AMPT
  Flow Routing Method ...... DYNWAVE
  Surcharge Method ......... EXTRAN
  Starting Date ............ 08/28/2015 08:00:00
  Ending Date .............. 08/28/2015 11:50:00
  Antecedent Dry Days ...... 4.0
  Report Time Step ......... 00:01:00
  Wet Time Step ............ 00:01:00
  Dry Time Step ............ 00:01:00
  Routing Time Step ........ 5.00 sec
  Variable Time Step ....... YES
  Maximum Trials ........... 8
  Number of Threads ........ 1
  Head Tolerance ........... 0.001500 m
  
  
  **************************        Volume         Depth
  Runoff Quantity Continuity     hectare-m            mm
  **************************     ---------       -------
  Total Precipitation ......         2.029        32.804
  Evaporation Loss .........         0.000         0.000
  Infiltration Loss ........         0.625        10.109
  Surface Runoff ...........         0.582         9.407
  Final Storage ............         0.822        13.289
  Continuity Error (%) .....        -0.004
  
  
  **************************           COD         NH3-N            TN            TP            SS
  Runoff Quality Continuity             kg            kg            kg            kg            kg
  **************************    ----------    ----------    ----------    ----------    ----------
  Initial Buildup ..........      2504.640         0.000         0.000         0.000         0.000
  Surface Buildup ..........        19.475         0.000         0.000         0.000         0.000
  Wet Deposition ...........         0.000         0.000         0.000         0.000         0.000
  Sweeping Removal .........         0.000         0.000         0.000         0.000         0.000
  Infiltration Loss ........       170.219         0.000         0.000         0.000         0.000
  BMP Removal ..............         0.000         0.000         0.000         0.000         0.000
  Surface Runoff ...........      1199.030         0.000         0.000         0.000         0.000
  Remaining Buildup ........      1154.287         0.000         0.000         0.000         0.000
  Continuity Error (%) .....         0.023         0.000         0.000         0.000         0.000
  
  
  **************************        Volume        Volume
  Flow Routing Continuity        hectare-m      10^6 ltr
  **************************     ---------     ---------
  Dry Weather Inflow .......         0.000         0.000
  Wet Weather Inflow .......         0.580         5.804
  Groundwater Inflow .......         0.000         0.000
  RDII Inflow ..............         0.000         0.000
  External Inflow ..........         0.082         0.822
  External Outflow .........         0.564         5.638
  Flooding Loss ............         0.054         0.544
  Evaporation Loss .........         0.000         0.000
  Exfiltration Loss ........         0.000         0.000
  Initial Stored Volume ....         0.000         0.000
  Final Stored Volume ......         0.056         0.564
  Continuity Error (%) .....        -1.819
  
  
  **************************           COD         NH3-N            TN            TP            SS
  Quality Routing Continuity            kg            kg            kg            kg            kg
  **************************    ----------    ----------    ----------    ----------    ----------
  Dry Weather Inflow .......         0.000         0.000         0.000         0.000         0.000
  Wet Weather Inflow .......      1197.246         0.000         0.000         0.000         0.000
  Groundwater Inflow .......         0.000         0.000         0.000         0.000         0.000
  RDII Inflow ..............         0.000         0.000         0.000         0.000         0.000
  External Inflow ..........       137.263         0.000         0.000         0.000         0.000
  External Outflow .........      1038.126         0.000         0.000         0.000         0.000
  Flooding Loss ............       188.692         0.000         0.000         0.000         0.000
  Exfiltration Loss ........         0.000         0.000         0.000         0.000         0.000
  Mass Reacted .............         0.000         0.000         0.000         0.000         0.000
  Initial Stored Mass ......         0.000         0.000         0.000         0.000         0.000
  Final Stored Mass ........        73.765         0.000         0.000         0.000         0.000
  Continuity Error (%) .....         2.542         0.000         0.000         0.000         0.000
  
  
  *************************
  Highest Continuity Errors
  *************************
  Node WS02006230 (6.39%)
  Node WS02006229 (3.88%)
  Node WS02006231 (3.41%)
  Node WS02006242 (2.55%)
  Node WS02006243 (2.13%)
  
  
  ***************************
  Time-Step Critical Elements
  ***************************
  Link 8 (86.35%)
  Link WSL2448 (6.32%)
  Link 17 (6.20%)
  
  
  ********************************
  Highest Flow Instability Indexes
  ********************************
  Link WSL2302 (2)
  Link WSL2301 (2)
  Link WSL2297 (1)
  Link WSL2296 (1)
  
  
  *************************
  Routing Time Step Summary
  *************************
  Minimum Time Step           :     0.08 sec
  Average Time Step           :     0.82 sec
  Maximum Time Step           :     5.00 sec
  Percent in Steady State     :    -0.00
  Average Iterations per Step :     2.10
  Percent Not Converging      :     1.24
  
  
  ***************************
  Subcatchment Runoff Summary
  ***************************
  
  ------------------------------------------------------------------------------------------------------------------------------
                            Total      Total      Total      Total     Imperv       Perv      Total       Total     Peak  Runoff
                           Precip      Runon       Evap      Infil     Runoff     Runoff     Runoff      Runoff   Runoff   Coeff
  Subcatchment                 mm         mm         mm         mm         mm         mm         mm    10^6 ltr      MLD
  ------------------------------------------------------------------------------------------------------------------------------
  1                         32.80      51.37       0.00      12.17      20.11      28.04      48.16        0.58    11.21   0.572
  2                         32.80       0.00       0.00       9.51       7.95       5.51      13.47        0.45     9.41   0.410
  3                         32.80       0.00       0.00       9.60       7.88       4.73      12.61        0.64    13.30   0.384
  35                        32.80       0.00       0.00       9.48       7.97       5.73      13.69        0.41     8.62   0.417
  36                        32.80      28.10       0.00      11.83      14.21      11.40      25.61        1.51    28.77   0.420
  40                        32.80       7.27       0.00      10.19       9.59       7.13      16.71        0.65    12.99   0.417
  41                        32.80       0.00       0.00       9.35       8.03       6.67      14.69        0.29     5.96   0.448
  42                        32.80       0.00       0.00       9.40       8.01       6.32      14.32        0.33     6.81   0.437
  43                        32.80       0.00       0.00       8.71       8.14      10.64      18.78        0.07     1.48   0.573
  44                        32.80     423.86       0.00      19.00     112.07     268.61     380.68        1.41    28.38   0.834
  45                        32.80       0.00       0.00       9.14       8.08       8.12      16.20        0.17     3.53   0.494
  46                        32.80      23.74       0.00      11.15      13.52      14.37      27.90        0.60    11.53   0.493
  47                        32.80       0.00       0.00       9.16       8.08       7.94      16.02        0.18     3.76   0.488
  48                        32.80      11.22       0.00      10.18      10.66      11.06      21.72        0.34     6.80   0.493
  55                        32.80      16.85       0.00      10.27      12.09      15.71      27.80        0.23     4.60   0.560
  56                        32.80      25.94       0.00      11.28      14.04      15.17      29.22        0.63    12.11   0.497
  57                        32.80       0.00       0.00       9.60       7.89       4.76      12.65        0.63    13.08   0.386
  59                        32.80       0.00       0.00       9.06       8.10       8.60      16.70        0.14     2.99   0.509
  60                        32.80      36.41       0.00      11.08      16.88      27.47      44.35        0.23     4.66   0.641
  61                        32.80       0.00       0.00       9.83       7.54       2.83      10.38        1.87    38.28   0.316
  64                        32.80       0.00       0.00       9.19       8.07       7.76      15.83        0.19     4.01   0.483
  
  
  ****************************
  Subcatchment Washoff Summary
  ****************************
  
  ------------------------------------------------------------------------------------------
                                 COD         NH3-N            TN            TP            SS
  Subcatchment                    kg            kg            kg            kg            kg
  ------------------------------------------------------------------------------------------
  1                          101.247         0.000         0.000         0.000         0.000
  2                            0.000         0.000         0.000         0.000         0.000
  3                            0.000         0.000         0.000         0.000         0.000
  35                         102.139         0.000         0.000         0.000         0.000
  36                         457.757         0.000         0.000         0.000         0.000
  40                         180.979         0.000         0.000         0.000         0.000
  41                          69.640         0.000         0.000         0.000         0.000
  42                          80.066         0.000         0.000         0.000         0.000
  43                          15.251         0.000         0.000         0.000         0.000
  44                         435.570         0.000         0.000         0.000         0.000
  45                          39.904         0.000         0.000         0.000         0.000
  46                         165.345         0.000         0.000         0.000         0.000
  47                          42.655         0.000         0.000         0.000         0.000
  48                          91.044         0.000         0.000         0.000         0.000
  55                          57.896         0.000         0.000         0.000         0.000
  56                         168.389         0.000         0.000         0.000         0.000
  57                         155.923         0.000         0.000         0.000         0.000
  59                          33.233         0.000         0.000         0.000         0.000
  60                          56.047         0.000         0.000         0.000         0.000
  61                         448.395         0.000         0.000         0.000         0.000
  64                          45.712         0.000         0.000         0.000         0.000
  ------------------------------------------------------------------------------------------
  System                    2747.191         0.000         0.000         0.000         0.000
  
  
  ******************
  Node Depth Summary
  ******************
  
  ---------------------------------------------------------------------------------
                                 Average  Maximum  Maximum  Time of Max    Reported
                                   Depth    Depth      HGL   Occurrence   Max Depth
  Node                 Type       Meters   Meters   Meters  days hr:min      Meters
  ---------------------------------------------------------------------------------
  WS01000070           JUNCTION     0.00     0.00     0.00     0  00:00        0.00
  WS01000323           JUNCTION     0.00     0.00     0.00     0  00:00        0.00
  WS01000533           JUNCTION     0.00     0.00     6.86     0  00:00        0.00
  WS01005172           JUNCTION     0.00     0.00     0.00     0  00:00        0.00
  WS01005181           JUNCTION     0.00     0.00     0.00     0  00:00        0.00
  WS01009841           JUNCTION     0.00     0.00     0.00     0  00:00        0.00
  WS02000078           JUNCTION     0.00     0.00     0.00     0  00:00        0.00
  WS02000112           JUNCTION     0.00     0.00     0.00     0  00:00        0.00
  WS02000136           JUNCTION     0.00     0.00     0.00     0  00:00        0.00
  WS02004053           JUNCTION     0.00     0.00     0.00     0  00:00        0.00
  WS02004401           JUNCTION     2.23     2.41     8.41     0  03:01        2.41
  WS02005192           JUNCTION     0.57     1.42     9.29     0  01:34        0.92
  WS02005193           JUNCTION     0.61     2.02     9.84     0  01:35        0.95
  WS02005196           JUNCTION     0.58     0.94     8.79     0  01:34        0.93
  WS02006109           JUNCTION     1.67     1.91     8.53     0  03:00        1.91
  WS02006110           JUNCTION     1.68     1.91     8.51     0  03:00        1.91
  WS02006111           JUNCTION     1.68     1.88     8.46     0  03:00        1.88
  WS02006112           JUNCTION     2.12     2.32     8.44     0  03:00        2.32
  WS02006113           JUNCTION     1.69     1.91     8.50     0  03:00        1.91
  WS02006115           JUNCTION     2.14     2.33     8.43     0  03:01        2.33
  WS02006116           JUNCTION     2.20     2.38     8.42     0  03:01        2.38
  WS02006183           JUNCTION     0.00     0.00     0.00     0  00:00        0.00
  WS02006228           JUNCTION     1.65     1.90     8.55     0  03:00        1.90
  WS02006229           JUNCTION     1.61     1.86     8.55     0  03:01        1.86
  WS02006230           JUNCTION     1.55     1.80     8.55     0  03:00        1.80
  WS02006231           JUNCTION     1.41     1.65     8.55     0  03:00        1.65
  WS02006232           JUNCTION     1.28     1.76     8.79     0  01:30        1.52
  WS02006234           JUNCTION     1.16     1.39     8.55     0  03:00        1.38
  WS02006235           JUNCTION     1.15     1.38     8.55     0  03:00        1.37
  WS02006238           JUNCTION     1.14     1.37     8.55     0  03:00        1.36
  WS02006239           JUNCTION     1.11     1.33     8.54     0  03:00        1.33
  WS02006242           JUNCTION     1.03     1.36     8.66     0  01:31        1.26
  WS02006240           JUNCTION     1.04     1.29     8.58     0  01:33        1.26
  WS02006243           JUNCTION     0.91     1.29     8.71     0  01:32        1.11
  WS02006245           JUNCTION     0.85     1.23     8.72     0  01:32        1.04
  WS02006247           JUNCTION     0.83     1.08     8.59     0  01:32        1.01
  WS02006248           JUNCTION     0.75     0.92     8.51     0  03:00        0.92
  WS02006249           JUNCTION     0.76     1.09     8.69     0  01:35        0.97
  WS02006251           JUNCTION     0.73     2.21     9.88     0  01:35        1.04
  WS02006253           JUNCTION     0.62     0.97     8.77     0  03:00        0.97
  WS02618401           JUNCTION     0.00     0.00     0.00     0  00:00        0.00
  WSA1649              JUNCTION     0.00     0.00     0.00     0  00:00        0.00
  outfall-5            OUTFALL      0.18     0.32     7.99     0  03:00        0.32
  outfall-14           OUTFALL      0.14     0.21     7.87     0  03:01        0.21
  outfall-16           OUTFALL      0.00     0.00     8.39     0  00:00        0.00
  CC-storage           STORAGE      2.89     5.63     8.81     0  02:00        5.63
  
  
  *******************
  Node Inflow Summary
  *******************
  
  -------------------------------------------------------------------------------------------------
                                  Maximum  Maximum                  Lateral       Total        Flow
                                  Lateral    Total  Time of Max      Inflow      Inflow     Balance
                                   Inflow   Inflow   Occurrence      Volume      Volume       Error
  Node                 Type           MLD      MLD  days hr:min    10^6 ltr    10^6 ltr     Percent
  -------------------------------------------------------------------------------------------------
  WS01000070           JUNCTION      0.00     0.00     0  00:00           0           0       0.000 ltr
  WS01000323           JUNCTION      0.00     0.00     0  00:00           0           0       0.000 ltr
  WS01000533           JUNCTION      0.00     0.00     0  00:00           0           0       0.000 ltr
  WS01005172           JUNCTION      0.00     0.00     0  00:00           0           0       0.000 ltr
  WS01005181           JUNCTION      0.00     0.00     0  00:00           0           0       0.000 ltr
  WS01009841           JUNCTION      0.00     0.00     0  00:00           0           0       0.000 ltr
  WS02000078           JUNCTION      0.00     0.00     0  00:00           0           0       0.000 ltr
  WS02000112           JUNCTION      0.00     0.00     0  00:00           0           0       0.000 ltr
  WS02000136           JUNCTION      0.00     0.00     0  00:00           0           0       0.000 ltr
  WS02004053           JUNCTION      0.00     0.00     0  00:00           0           0       0.000 ltr
  WS02004401           JUNCTION      0.05    40.66     0  03:01      0.0086        2.24       1.298
  WS02005192           JUNCTION     13.18    13.18     0  02:46       0.648       0.651       0.424
  WS02005193           JUNCTION      0.09    17.42     0  01:34       0.014       0.688       1.083
  WS02005196           JUNCTION      0.12    15.93     0  01:34      0.0183       0.672       1.065
  WS02006109           JUNCTION      0.08    27.97     0  03:01      0.0129        1.64       1.482
  WS02006110           JUNCTION      0.08    28.04     0  03:01      0.0126        1.63       1.519
  WS02006111           JUNCTION      0.24    40.18     0  03:01      0.0352        2.28       0.898
  WS02006112           JUNCTION      0.18    40.33     0  03:01      0.0263        2.29       1.412
  WS02006113           JUNCTION     13.45    39.98     0  03:01       0.667        2.27       1.044
  WS02006115           JUNCTION      0.08    40.41     0  03:01      0.0129        2.27       1.643
  WS02006116           JUNCTION      0.24    40.60     0  03:01      0.0347        2.27       1.479
  WS02006183           JUNCTION      0.00     0.00     0  00:00           0           0       0.000 ltr
  WS02006228           JUNCTION     28.54    28.54     0  03:01        1.43        1.72       1.039
  WS02006229           JUNCTION      0.13    14.85     0  01:29      0.0193       0.399       4.039
  WS02006230           JUNCTION      0.07    16.63     0  01:30      0.0111       0.413       6.821
  WS02006231           JUNCTION      0.13    21.50     0  01:30      0.0197       0.423       3.527
  WS02006232           JUNCTION      9.49    26.62     0  01:30       0.466        0.78       1.939
  WS02006234           JUNCTION      0.14    27.31     0  01:30      0.0208       0.693       2.039
  WS02006235           JUNCTION      0.14    27.30     0  01:30      0.0215       0.698       1.150
  WS02006238           JUNCTION      0.15    29.34     0  01:31      0.0226       0.706       1.332
  WS02006239           JUNCTION      0.11    32.71     0  01:31      0.0167       0.716       2.063
  WS02006242           JUNCTION      0.08    37.93     0  01:31      0.0124       0.747       2.621
  WS02006240           JUNCTION      0.06    34.32     0  01:31     0.00952       0.727       2.175
  WS02006243           JUNCTION      0.17    35.76     0  01:31      0.0259       0.768       2.177
  WS02006245           JUNCTION      0.07    35.77     0  01:31      0.0109       0.772       1.645
  WS02006247           JUNCTION     11.35    35.89     0  01:31       0.605        1.33       0.852
  WS02006248           JUNCTION      0.12    74.00     0  03:00      0.0185        3.65       0.295
  WS02006249           JUNCTION      0.19    51.70     0  03:00      0.0275        2.57       0.571
  WS02006251           JUNCTION      4.66    51.54     0  03:00        0.24        2.56       0.571
  WS02006253           JUNCTION      0.11    46.91     0  03:00      0.0166        2.34       0.324
  WS02618401           JUNCTION      0.00     0.00     0  00:00           0           0       0.000 ltr
  WSA1649              JUNCTION      0.00     0.00     0  00:00           0           0       0.000 ltr
  outfall-5            OUTFALL       0.00    74.01     0  03:00           0        3.43       0.000
  outfall-14           OUTFALL       0.00    40.66     0  03:01           0        2.21       0.000
  outfall-16           OUTFALL       0.00     0.00     0  00:00           0           0       0.000 ltr
  CC-storage           STORAGE      39.90    39.90     0  02:48        2.14        2.14      -6.610
  
  
  **********************
  Node Surcharge Summary
  **********************
  
  Surcharging occurs when water rises above the top of the highest conduit.
  ---------------------------------------------------------------------
                                               Max. Height   Min. Depth
                                   Hours       Above Crown    Below Rim
  Node                 Type      Surcharged         Meters       Meters
  ---------------------------------------------------------------------
  WS01000070           JUNCTION        3.83          0.000        0.000
  WS01000323           JUNCTION        3.83          0.000        0.000
  WS01000533           JUNCTION        3.83          0.000        2.147
  WS01005172           JUNCTION        3.83          0.000        0.000
  WS01005181           JUNCTION        3.83          0.000        0.000
  WS01009841           JUNCTION        3.83          0.000        0.000
  WS02000078           JUNCTION        3.83          0.000        0.000
  WS02000112           JUNCTION        3.83          0.000        0.000
  WS02000136           JUNCTION        3.83          0.000        0.000
  WS02004053           JUNCTION        3.83          0.000        0.000
  WS02005192           JUNCTION        0.99          0.821        1.998
  WS02005193           JUNCTION        1.26          1.421        1.196
  WS02005196           JUNCTION        1.10          0.338        2.368
  WS02006109           JUNCTION        2.34          1.113        0.725
  WS02006110           JUNCTION        2.34          1.114        0.731
  WS02006111           JUNCTION        2.34          1.083        0.794
  WS02006112           JUNCTION        2.46          1.319        0.364
  WS02006113           JUNCTION        2.34          1.108        0.825
  WS02006115           JUNCTION        2.48          1.326        0.973
  WS02006116           JUNCTION        2.55          1.377        0.973
  WS02006183           JUNCTION        3.83          0.000        0.000
  WS02006228           JUNCTION        2.34          1.097        1.134
  WS02006229           JUNCTION        2.33          1.057        1.397
  WS02006231           JUNCTION        2.32          0.949        0.594
  WS02006232           JUNCTION        2.31          1.057        0.432
  WS02006234           JUNCTION        2.31          0.689        0.568
  WS02006235           JUNCTION        2.31          0.678        0.616
  WS02006238           JUNCTION        2.31          0.667        0.767
  WS02006239           JUNCTION        2.31          0.635        0.694
  WS02006242           JUNCTION        2.30          0.655        0.194
  WS02006240           JUNCTION        2.30          0.591        0.812
  WS02006243           JUNCTION        2.30          0.590        0.190
  WS02006245           JUNCTION        2.29          0.533        0.322
  WS02006247           JUNCTION        2.29          0.378        0.382
  WS02006249           JUNCTION        1.86          0.388        0.000
  WS02006251           JUNCTION        1.48          1.510        0.000
  WS02006253           JUNCTION        0.90          0.267        2.187
  WS02618401           JUNCTION        3.83          0.000        0.000
  WSA1649              JUNCTION        3.83          0.000        0.000
  
  
  *********************
  Node Flooding Summary
  *********************
  
  Flooding refers to all water that overflows a node, whether it ponds or not.
  --------------------------------------------------------------------------
                                                             Total   Maximum
                                 Maximum   Time of Max       Flood    Ponded
                        Hours       Rate    Occurrence      Volume     Depth
  Node                 Flooded       MLD   days hr:min    10^6 ltr    Meters
  --------------------------------------------------------------------------
  WS02006249              0.01      7.02      0  01:35       0.000     0.000
  WS02006251              0.01     14.99      0  01:35       0.000     0.000
  CC-storage              0.50     39.90      0  02:48       0.544     0.000
  
  
  **********************
  Storage Volume Summary
  **********************
  
  --------------------------------------------------------------------------------------------------
                         Average     Avg  Evap Exfil       Maximum     Max    Time of Max    Maximum
                          Volume    Pcnt  Pcnt  Pcnt        Volume    Pcnt     Occurrence    Outflow
  Storage Unit           1000 m3    Full  Loss  Loss       1000 m3    Full    days hr:min        MLD
  --------------------------------------------------------------------------------------------------
  CC-storage               0.082      51     0     0         0.159     100       0  02:00      34.56
  
  
  ***********************
  Outfall Loading Summary
  ***********************
  
  ---------------------------------------------------------------------------------------------------------------------------------
                         Flow       Avg       Max       Total         Total         Total         Total         Total         Total
                         Freq      Flow      Flow      Volume           COD         NH3-N            TN            TP            SS
  Outfall Node           Pcnt       MLD       MLD    10^6 ltr            kg            kg            kg            kg            kg
  ---------------------------------------------------------------------------------------------------------------------------------
  outfall-5             92.57     37.58     74.01       3.429       602.048         0.000         0.000         0.000         0.000
  outfall-14            92.61     24.02     40.66       2.209       436.100         0.000         0.000         0.000         0.000
  outfall-16             0.00      0.00      0.00       0.000         0.000         0.000         0.000         0.000         0.000
  ---------------------------------------------------------------------------------------------------------------------------------
  System                61.73     61.60    114.22       5.638      1038.148         0.000         0.000         0.000         0.000
  
  
  ********************
  Link Flow Summary
  ********************
  
  -----------------------------------------------------------------------------
                                 Maximum  Time of Max   Maximum    Max/    Max/
                                  |Flow|   Occurrence   |Veloc|    Full    Full
  Link                 Type          MLD  days hr:min     m/sec    Flow   Depth
  -----------------------------------------------------------------------------
  WSL2038              CONDUIT     13.17     0  02:46      0.55    0.66    1.00
  WSL2039              CONDUIT     17.33     0  01:34      0.90    0.89    1.00
  WSL2041              CONDUIT     15.51     0  01:34      0.89    0.76    1.00
  WSL2294              CONDUIT     27.97     0  03:01      0.64    0.94    1.00
  WSL2295              CONDUIT     28.04     0  03:01      0.65    1.26    1.00
  WSL2296              CONDUIT     40.18     0  03:01      0.93    0.23    1.00
  WSL2297              CONDUIT     40.33     0  03:01      0.59    0.77    1.00
  WSL2298              CONDUIT     39.99     0  03:01      0.92    1.84    1.00
  WSL2301              CONDUIT     40.41     0  03:01      0.60    0.37    1.00
  WSL2302              CONDUIT     40.60     0  03:01      0.60    0.50    1.00
  WSL2441              CONDUIT     27.89     0  03:01      0.64    0.71    1.00
  WSL2442              CONDUIT     14.72     0  01:29      0.63    0.38    1.00
  WSL2443              CONDUIT     16.55     0  01:30      0.73    0.26    1.00
  WSL2444              CONDUIT     21.37     0  01:30      0.93    0.34    1.00
  WSL2446              CONDUIT     25.20     0  01:30      1.26    0.43    1.00
  WSL2447              CONDUIT     27.17     0  01:30      1.39    1.40    1.00
  WSL2448              CONDUIT     27.15     0  01:30      1.29    0.76    1.00
  WSL2449              CONDUIT     29.04     0  01:31      1.25    1.01    1.00
  WSL2450              CONDUIT     32.60     0  01:31      1.31    0.68    1.00
  WSL2451              CONDUIT     34.26     0  01:31      1.31    2.23    1.00
  WSL2452              CONDUIT     37.85     0  01:31      1.35    0.72    1.00
  WSL2454              CONDUIT     35.58     0  01:31      1.47    0.83    1.00
  WSL2478              CONDUIT     35.70     0  01:31      1.42    1.26    1.00
  WSL2479              CONDUIT     34.90     0  01:31      1.41    0.66    1.00
  WSL2480              CONDUIT     51.71     0  03:00      1.56    2.39    1.00
  WSL2482              CONDUIT     51.55     0  03:00      1.55    1.34    1.00
  WSL2484              CONDUIT     46.92     0  03:00      1.51    0.66    1.00
  WSL2493              CONDUIT     13.23     0  01:29      0.51    0.22    1.00
  8                    CONDUIT     74.01     0  03:00      7.96    0.98    0.80
  19                   CONDUIT      0.00     0  00:00      0.00    0.00    0.00
  17                   CONDUIT     40.66     0  03:01      7.19    0.53    0.52
  CC-Pump-1            PUMP        17.28     0  02:10              1.00
  CC-Pump-2            PUMP        17.28     0  02:10              1.00
  
  
  ***************************
  Flow Classification Summary
  ***************************
  
  -------------------------------------------------------------------------------------
                      Adjusted    ---------- Fraction of Time in Flow Class ---------- 
                       /Actual         Up    Down  Sub   Sup   Up    Down  Norm  Inlet 
  Conduit               Length    Dry  Dry   Dry   Crit  Crit  Crit  Crit  Ltd   Ctrl  
  -------------------------------------------------------------------------------------
  WSL2038                 1.00   0.00  0.00  0.00  1.00  0.00  0.00  0.00  0.01  0.00
  WSL2039                 1.00   0.00  0.00  0.00  1.00  0.00  0.00  0.00  0.00  0.00
  WSL2041                 1.00   0.00  0.00  0.00  1.00  0.00  0.00  0.00  0.29  0.00
  WSL2294                 1.00   0.00  0.00  0.00  1.00  0.00  0.00  0.00  0.00  0.00
  WSL2295                 1.00   0.00  0.00  0.00  1.00  0.00  0.00  0.00  0.00  0.00
  WSL2296                 1.00   0.00  0.00  0.00  1.00  0.00  0.00  0.00  0.17  0.00
  WSL2297                 1.00   0.00  0.00  0.00  1.00  0.00  0.00  0.00  0.00  0.00
  WSL2298                 1.00   0.00  0.00  0.00  0.98  0.02  0.00  0.00  0.00  0.00
  WSL2301                 1.00   0.00  0.00  0.00  1.00  0.00  0.00  0.00  0.04  0.00
  WSL2302                 1.00   0.00  0.00  0.00  1.00  0.00  0.00  0.00  0.01  0.00
  WSL2441                 1.00   0.00  0.00  0.00  1.00  0.00  0.00  0.00  0.00  0.00
  WSL2442                 1.00   0.00  0.00  0.00  1.00  0.00  0.00  0.00  0.17  0.00
  WSL2443                 1.00   0.00  0.00  0.00  1.00  0.00  0.00  0.00  0.30  0.00
  WSL2444                 1.00   0.00  0.00  0.00  0.95  0.05  0.00  0.00  0.22  0.00
  WSL2446                 1.00   0.00  0.00  0.00  0.95  0.05  0.00  0.00  0.00  0.00
  WSL2447                 1.00   0.00  0.00  0.00  1.00  0.00  0.00  0.00  0.00  0.00
  WSL2448                 1.00   0.00  0.00  0.00  1.00  0.00  0.00  0.00  0.00  0.00
  WSL2449                 1.00   0.00  0.00  0.00  1.00  0.00  0.00  0.00  0.02  0.00
  WSL2450                 1.00   0.00  0.00  0.00  1.00  0.00  0.00  0.00  0.36  0.00
  WSL2451                 1.00   0.00  0.00  0.00  1.00  0.00  0.00  0.00  0.00  0.00
  WSL2452                 1.00   0.00  0.00  0.00  1.00  0.00  0.00  0.00  0.35  0.00
  WSL2454                 1.00   0.00  0.00  0.00  1.00  0.00  0.00  0.00  0.01  0.00
  WSL2478                 1.00   0.00  0.00  0.00  1.00  0.00  0.00  0.00  0.00  0.00
  WSL2479                 1.00   0.00  0.00  0.00  1.00  0.00  0.00  0.00  0.35  0.00
  WSL2480                 1.00   0.00  0.00  0.00  1.00  0.00  0.00  0.00  0.00  0.00
  WSL2482                 1.00   0.00  0.00  0.00  1.00  0.00  0.00  0.00  0.35  0.00
  WSL2484                 1.00   0.00  0.00  0.00  1.00  0.00  0.00  0.00  0.34  0.00
  WSL2493                 1.00   0.00  0.00  0.00  1.00  0.00  0.00  0.00  0.05  0.00
  8                       1.00   0.07  0.00  0.00  0.00  0.93  0.00  0.00  0.11  0.00
  19                      1.00   1.00  0.00  0.00  0.00  0.00  0.00  0.00  0.00  0.00
  17                      1.00   0.07  0.00  0.00  0.00  0.93  0.00  0.00  0.02  0.00
  
  
  *************************
  Conduit Surcharge Summary
  *************************
  
  ----------------------------------------------------------------------------
                                                           Hours        Hours 
                         --------- Hours Full --------   Above Full   Capacity
  Conduit                Both Ends  Upstream  Dnstream   Normal Flow   Limited
  ----------------------------------------------------------------------------
  WSL2038                     0.99      0.99      1.10      0.01         0.01
  WSL2039                     1.26      1.26      1.33      0.01         0.01
  WSL2041                     1.10      1.10      1.26      0.01         0.01
  WSL2294                     2.34      2.34      2.34      0.01         0.02
  WSL2295                     2.34      2.34      2.34      0.59         0.61
  WSL2296                     2.34      2.34      2.74      0.01         0.01
  WSL2297                     2.46      2.46      2.48      0.01         0.01
  WSL2298                     2.34      2.34      2.34      1.36         1.39
  WSL2301                     2.48      2.48      2.55      0.01         0.01
  WSL2302                     2.55      2.55      2.61      0.01         0.01
  WSL2441                     2.34      2.34      2.34      0.01         0.01
  WSL2442                     2.33      2.33      2.34      0.01         0.01
  WSL2443                     2.32      2.32      2.33      0.01         0.01
  WSL2444                     2.31      2.31      2.32      0.01         0.01
  WSL2446                     2.31      2.31      2.31      0.01         0.01
  WSL2447                     2.31      2.31      2.31      0.03         0.01
  WSL2448                     2.31      2.31      2.31      0.01         0.01
  WSL2449                     2.31      2.31      2.31      0.01         0.01
  WSL2450                     2.30      2.30      2.31      0.01         0.01
  WSL2451                     2.30      2.30      2.30      0.08         0.01
  WSL2452                     2.30      2.30      2.30      0.01         0.01
  WSL2454                     2.29      2.29      2.30      0.01         0.01
  WSL2478                     2.29      2.29      2.29      0.05         0.01
  WSL2479                     1.97      1.97      2.29      0.01         0.01
  WSL2480                     1.86      1.86      1.97      1.21         1.13
  WSL2482                     1.48      1.48      1.86      0.75         0.75
  WSL2484                     0.90      0.90      1.48      0.01         0.01
  WSL2493                     2.33      2.33      2.34      0.01         0.01
  
  
  ***************
  Pumping Summary
  ***************
  
  ---------------------------------------------------------------------------------------------------------
                                                  Min       Avg       Max     Total     Power    % Time Off
                        Percent   Number of      Flow      Flow      Flow    Volume     Usage    Pump Curve
  Pump                 Utilized   Start-Ups       MLD       MLD       MLD  10^6 ltr     Kw-hr    Low   High
  ---------------------------------------------------------------------------------------------------------
  CC-Pump-1               43.47           3      0.00     12.37     17.28     0.825      6.25    0.0    0.0
  CC-Pump-2               43.47           3      0.00     12.37     17.28     0.825      6.25    0.0    0.0
  
  
  ***************************
  Link Pollutant Load Summary
  ***************************
  
  ------------------------------------------------------------------------------------------
                                 COD         NH3-N            TN            TP            SS
  Link                            kg            kg            kg            kg            kg
  ------------------------------------------------------------------------------------------
  WSL2038                    159.065         0.000         0.000         0.000         0.000
  WSL2039                    163.761         0.000         0.000         0.000         0.000
  WSL2041                    161.911         0.000         0.000         0.000         0.000
  WSL2294                    443.385         0.000         0.000         0.000         0.000
  WSL2295                    440.573         0.000         0.000         0.000         0.000
  WSL2296                    444.515         0.000         0.000         0.000         0.000
  WSL2297                    443.560         0.000         0.000         0.000         0.000
  WSL2298                    440.967         0.000         0.000         0.000         0.000
  WSL2301                    441.398         0.000         0.000         0.000         0.000
  WSL2302                    441.435         0.000         0.000         0.000         0.000
  WSL2441                    445.694         0.000         0.000         0.000         0.000
  WSL2442                     57.331         0.000         0.000         0.000         0.000
  WSL2443                     52.933         0.000         0.000         0.000         0.000
  WSL2444                     45.910         0.000         0.000         0.000         0.000
  WSL2446                     45.417         0.000         0.000         0.000         0.000
  WSL2447                     49.327         0.000         0.000         0.000         0.000
  WSL2448                     51.190         0.000         0.000         0.000         0.000
  WSL2449                     53.621         0.000         0.000         0.000         0.000
  WSL2450                     57.218         0.000         0.000         0.000         0.000
  WSL2451                     61.105         0.000         0.000         0.000         0.000
  WSL2452                     65.308         0.000         0.000         0.000         0.000
  WSL2454                     68.348         0.000         0.000         0.000         0.000
  WSL2478                     70.356         0.000         0.000         0.000         0.000
  WSL2479                    164.458         0.000         0.000         0.000         0.000
  WSL2480                    495.033         0.000         0.000         0.000         0.000
  WSL2482                    491.918         0.000         0.000         0.000         0.000
  WSL2484                    433.437         0.000         0.000         0.000         0.000
  WSL2493                     62.785         0.000         0.000         0.000         0.000
  8                          602.048         0.000         0.000         0.000         0.000
  19                           0.000         0.000         0.000         0.000         0.000
  17                         436.100         0.000         0.000         0.000         0.000
  CC-Pump-1                  133.885         0.000         0.000         0.000         0.000
  CC-Pump-2                  133.885         0.000         0.000         0.000         0.000
  

  Analysis begun on:  Wed Jan  1 18:26:06 2020
  Analysis ended on:  Wed Jan  1 18:26:06 2020
  Total elapsed time: < 1 sec