
  EPA STORM WATER MANAGEMENT MODEL - VERSION 5.1 (Build 5.3.0.dev0)
  --------------------------------------------------------------

  
  *********************************************************
  NOTE: The summary statistics displayed in this report are
  based on results found at every computational time step,  
  not just on results from each reporting time step.
  *********************************************************
  
  ****************
  Analysis Options
  ****************
  Flow Units ............... MLD
  Process Models:
    Rainfall/Runoff ........ YES
    RDII ................... NO
    Snowmelt ............... NO
    Groundwater ............ NO
    Flow Routing ........... YES
    Ponding Allowed ........ NO
    Water Quality .......... YES
  Infiltration Method ...... GREEN_AMPT
  Flow Routing Method ...... DYNWAVE
  Surcharge Method ......... EXTRAN
  Starting Date ............ 08/28/2015 08:00:00
  Ending Date .............. 08/28/2015 10:40:00
  Antecedent Dry Days ...... 4.0
  Report Time Step ......... 00:01:00
  Wet Time Step ............ 00:01:00
  Dry Time Step ............ 00:01:00
  Routing Time Step ........ 5.00 sec
  Variable Time Step ....... YES
  Maximum Trials ........... 8
  Number of Threads ........ 1
  Head Tolerance ........... 0.001500 m
  
  
  **************************        Volume         Depth
  Runoff Quantity Continuity     hectare-m            mm
  **************************     ---------       -------
  Total Precipitation ......         0.807        13.049
  Evaporation Loss .........         0.000         0.000
  Infiltration Loss ........         0.275         4.453
  Surface Runoff ...........         0.081         1.315
  Final Storage ............         0.450         7.281
  Continuity Error (%) .....         0.003
  
  
  **************************           COD         NH3-N            TN            TP            SS
  Runoff Quality Continuity             kg            kg            kg            kg            kg
  **************************    ----------    ----------    ----------    ----------    ----------
  Initial Buildup ..........      2504.640         0.000         0.000         0.000         0.000
  Surface Buildup ..........        20.012         0.000         0.000         0.000         0.000
  Wet Deposition ...........         0.000         0.000         0.000         0.000         0.000
  Sweeping Removal .........         0.000         0.000         0.000         0.000         0.000
  Infiltration Loss ........        17.102         0.000         0.000         0.000         0.000
  BMP Removal ..............         0.000         0.000         0.000         0.000         0.000
  Surface Runoff ...........        96.066         0.000         0.000         0.000         0.000
  Remaining Buildup ........      2401.631         0.000         0.000         0.000         0.000
  Continuity Error (%) .....         0.390         0.000         0.000         0.000         0.000
  
  
  **************************        Volume        Volume
  Flow Routing Continuity        hectare-m      10^6 ltr
  **************************     ---------     ---------
  Dry Weather Inflow .......         0.000         0.000
  Wet Weather Inflow .......         0.080         0.799
  Groundwater Inflow .......         0.000         0.000
  RDII Inflow ..............         0.000         0.000
  External Inflow ..........         0.060         0.596
  External Outflow .........         0.037         0.374
  Flooding Loss ............         0.035         0.354
  Evaporation Loss .........         0.000         0.000
  Exfiltration Loss ........         0.000         0.000
  Initial Stored Volume ....         0.000         0.000
  Final Stored Volume ......         0.062         0.624
  Continuity Error (%) .....         3.125
  
  
  **************************           COD         NH3-N            TN            TP            SS
  Quality Routing Continuity            kg            kg            kg            kg            kg
  **************************    ----------    ----------    ----------    ----------    ----------
  Dry Weather Inflow .......         0.000         0.000         0.000         0.000         0.000
  Wet Weather Inflow .......        93.458         0.000         0.000         0.000         0.000
  Groundwater Inflow .......         0.000         0.000         0.000         0.000         0.000
  RDII Inflow ..............         0.000         0.000         0.000         0.000         0.000
  External Inflow ..........        99.499         0.000         0.000         0.000         0.000
  External Outflow .........        48.352         0.000         0.000         0.000         0.000
  Flooding Loss ............        45.277         0.000         0.000         0.000         0.000
  Exfiltration Loss ........         0.000         0.000         0.000         0.000         0.000
  Mass Reacted .............         0.000         0.000         0.000         0.000         0.000
  Initial Stored Mass ......         0.000         0.000         0.000         0.000         0.000
  Final Stored Mass ........        91.390         0.000         0.000         0.000         0.000
  Continuity Error (%) .....         4.114         0.000         0.000         0.000         0.000
  
  
  *************************
  Highest Continuity Errors
  *************************
  Node WS02006115 (15.61%)
  Node WS02006116 (15.06%)
  Node WS02004401 (14.44%)
  Node WS02006112 (12.45%)
  Node WS02006230 (12.11%)
  
  
  ***************************
  Time-Step Critical Elements
  ***************************
  Link 8 (60.21%)
  Link WSL2448 (32.98%)
  
  
  ********************************
  Highest Flow Instability Indexes
  ********************************
  Link WSL2302 (9)
  Link WSL2301 (8)
  Link WSL2297 (7)
  Link WSL2296 (6)
  Link WSL2298 (5)
  
  
  *************************
  Routing Time Step Summary
  *************************
  Minimum Time Step           :     0.23 sec
  Average Time Step           :     2.10 sec
  Maximum Time Step           :     5.00 sec
  Percent in Steady State     :     0.00
  Average Iterations per Step :     2.13
  Percent Not Converging      :     0.55
  
  
  ***************************
  Subcatchment Runoff Summary
  ***************************
  
  ------------------------------------------------------------------------------------------------------------------------------
                            Total      Total      Total      Total     Imperv       Perv      Total       Total     Peak  Runoff
                           Precip      Runon       Evap      Infil     Runoff     Runoff     Runoff      Runoff   Runoff   Coeff
  Subcatchment                 mm         mm         mm         mm         mm         mm         mm    10^6 ltr      MLD
  ------------------------------------------------------------------------------------------------------------------------------
  1                         13.05       6.14       0.00       4.88       3.68       0.94       4.62        0.06     2.98   0.241
  2                         13.05       0.00       0.00       4.34       2.17       0.23       2.40        0.08     3.81   0.184
  3                         13.05       0.00       0.00       4.34       2.06       0.19       2.24        0.11     5.38   0.172
  35                        13.05       0.00       0.00       4.34       2.20       0.24       2.44        0.07     3.48   0.187
  36                        13.05       4.14       0.00       4.75       2.75       0.35       3.10        0.18     9.22   0.180
  40                        13.05       1.25       0.00       4.47       2.36       0.27       2.63        0.10     4.95   0.184
  41                        13.05       0.00       0.00       4.33       2.32       0.29       2.61        0.05     2.40   0.200
  42                        13.05       0.00       0.00       4.33       2.28       0.27       2.55        0.06     2.74   0.195
  43                        13.05       0.00       0.00       4.31       2.67       0.63       3.30        0.01     0.59   0.253
  44                        13.05      50.78       0.00       7.32      14.23      13.77      28.00        0.10     6.28   0.439
  45                        13.05       0.00       0.00       4.32       2.47       0.39       2.86        0.03     1.41   0.219
  46                        13.05       3.63       0.00       4.69       3.00       0.53       3.53        0.08     3.80   0.212
  47                        13.05       0.00       0.00       4.33       2.45       0.38       2.83        0.03     1.50   0.217
  48                        13.05       1.92       0.00       4.53       2.75       0.47       3.22        0.05     2.50   0.215
  55                        13.05       2.88       0.00       4.61       3.11       0.73       3.84        0.03     1.62   0.241
  56                        13.05       3.88       0.00       4.71       3.05       0.55       3.60        0.08     3.90   0.213
  57                        13.05       0.00       0.00       4.34       2.06       0.19       2.25        0.11     5.29   0.172
  59                        13.05       0.00       0.00       4.32       2.51       0.43       2.94        0.02     1.19   0.225
  60                        13.05       6.25       0.00       4.90       3.95       1.40       5.35        0.03     1.48   0.277
  61                        13.05       0.00       0.00       4.35       1.65       0.10       1.75        0.31    15.25   0.134
  64                        13.05       0.00       0.00       4.33       2.43       0.37       2.80        0.03     1.60   0.215
  
  
  ****************************
  Subcatchment Washoff Summary
  ****************************
  
  ------------------------------------------------------------------------------------------
                                 COD         NH3-N            TN            TP            SS
  Subcatchment                    kg            kg            kg            kg            kg
  ------------------------------------------------------------------------------------------
  1                            3.433         0.000         0.000         0.000         0.000
  2                            0.000         0.000         0.000         0.000         0.000
  3                            0.000         0.000         0.000         0.000         0.000
  35                          10.930         0.000         0.000         0.000         0.000
  36                          41.964         0.000         0.000         0.000         0.000
  40                          17.767         0.000         0.000         0.000         0.000
  41                           7.889         0.000         0.000         0.000         0.000
  42                           8.882         0.000         0.000         0.000         0.000
  43                           2.277         0.000         0.000         0.000         0.000
  44                          32.357         0.000         0.000         0.000         0.000
  45                           4.941         0.000         0.000         0.000         0.000
  46                          18.382         0.000         0.000         0.000         0.000
  47                           5.223         0.000         0.000         0.000         0.000
  48                          10.548         0.000         0.000         0.000         0.000
  55                           7.873         0.000         0.000         0.000         0.000
  56                          19.446         0.000         0.000         0.000         0.000
  57                          15.654         0.000         0.000         0.000         0.000
  59                           4.249         0.000         0.000         0.000         0.000
  60                           9.256         0.000         0.000         0.000         0.000
  61                          36.750         0.000         0.000         0.000         0.000
  64                           5.533         0.000         0.000         0.000         0.000
  ------------------------------------------------------------------------------------------
  System                     263.353         0.000         0.000         0.000         0.000
  
  
  ******************
  Node Depth Summary
  ******************
  
  ---------------------------------------------------------------------------------
                                 Average  Maximum  Maximum  Time of Max    Reported
                                   Depth    Depth      HGL   Occurrence   Max Depth
  Node                 Type       Meters   Meters   Meters  days hr:min      Meters
  ---------------------------------------------------------------------------------
  WS01000070           JUNCTION     0.00     0.00     0.00     0  00:00        0.00
  WS01000323           JUNCTION     0.00     0.00     0.00     0  00:00        0.00
  WS01000533           JUNCTION     0.00     0.00     6.86     0  00:00        0.00
  WS01005172           JUNCTION     0.00     0.00     0.00     0  00:00        0.00
  WS01005181           JUNCTION     0.00     0.00     0.00     0  00:00        0.00
  WS01009841           JUNCTION     0.00     0.00     0.00     0  00:00        0.00
  WS02000078           JUNCTION     0.00     0.00     0.00     0  00:00        0.00
  WS02000112           JUNCTION     0.00     0.00     0.00     0  00:00        0.00
  WS02000136           JUNCTION     0.00     0.00     0.00     0  00:00        0.00
  WS02004053           JUNCTION     0.00     0.00     0.00     0  00:00        0.00
  WS02004401           JUNCTION     1.79     2.31     8.31     0  02:40        2.31
  WS02005192           JUNCTION     0.28     0.45     8.32     0  02:40        0.45
  WS02005193           JUNCTION     0.32     0.50     8.32     0  02:40        0.50
  WS02005196           JUNCTION     0.30     0.47     8.32     0  02:40        0.47
  WS02006109           JUNCTION     1.22     1.70     8.32     0  02:40        1.70
  WS02006110           JUNCTION     1.24     1.72     8.32     0  02:40        1.72
  WS02006111           JUNCTION     1.25     1.74     8.32     0  02:40        1.74
  WS02006112           JUNCTION     1.67     2.19     8.31     0  02:40        2.19
  WS02006113           JUNCTION     1.24     1.73     8.32     0  02:40        1.73
  WS02006115           JUNCTION     1.69     2.21     8.31     0  02:40        2.21
  WS02006116           JUNCTION     1.75     2.27     8.31     0  02:40        2.27
  WS02006183           JUNCTION     0.00     0.00     0.00     0  00:00        0.00
  WS02006228           JUNCTION     1.19     1.68     8.33     0  02:40        1.68
  WS02006229           JUNCTION     1.16     1.63     8.32     0  02:40        1.63
  WS02006230           JUNCTION     1.10     1.57     8.32     0  02:40        1.57
  WS02006231           JUNCTION     0.98     1.42     8.32     0  02:40        1.42
  WS02006232           JUNCTION     0.88     1.29     8.32     0  02:40        1.29
  WS02006234           JUNCTION     0.78     1.16     8.32     0  02:40        1.16
  WS02006235           JUNCTION     0.78     1.15     8.32     0  02:40        1.15
  WS02006238           JUNCTION     0.77     1.14     8.32     0  02:40        1.14
  WS02006239           JUNCTION     0.75     1.11     8.32     0  02:40        1.11
  WS02006242           JUNCTION     0.68     1.02     8.32     0  02:40        1.02
  WS02006240           JUNCTION     0.68     1.03     8.32     0  02:40        1.03
  WS02006243           JUNCTION     0.59     0.90     8.32     0  02:40        0.90
  WS02006245           JUNCTION     0.54     0.83     8.32     0  02:40        0.83
  WS02006247           JUNCTION     0.53     0.81     8.32     0  02:40        0.81
  WS02006248           JUNCTION     0.46     0.72     8.31     0  02:40        0.72
  WS02006249           JUNCTION     0.46     0.72     8.32     0  02:40        0.72
  WS02006251           JUNCTION     0.41     0.65     8.32     0  02:40        0.65
  WS02006253           JUNCTION     0.32     0.52     8.32     0  02:40        0.52
  WS02618401           JUNCTION     0.00     0.00     0.00     0  00:00        0.00
  WSA1649              JUNCTION     0.00     0.00     0.00     0  00:00        0.00
  outfall-5            OUTFALL      0.06     0.12     7.79     0  02:40        0.12
  outfall-14           OUTFALL      0.05     0.11     7.77     0  02:40        0.11
  outfall-16           OUTFALL      0.00     0.00     8.39     0  00:00        0.00
  CC-storage           STORAGE      4.76     5.63     8.81     0  01:40        5.63
  
  
  *******************
  Node Inflow Summary
  *******************
  
  -------------------------------------------------------------------------------------------------
                                  Maximum  Maximum                  Lateral       Total        Flow
                                  Lateral    Total  Time of Max      Inflow      Inflow     Balance
                                   Inflow   Inflow   Occurrence      Volume      Volume       Error
  Node                 Type           MLD      MLD  days hr:min    10^6 ltr    10^6 ltr     Percent
  -------------------------------------------------------------------------------------------------
  WS01000070           JUNCTION      0.00     0.00     0  00:00           0           0       0.000 ltr
  WS01000323           JUNCTION      0.00     0.00     0  00:00           0           0       0.000 ltr
  WS01000533           JUNCTION      0.00     0.00     0  00:00           0           0       0.000 ltr
  WS01005172           JUNCTION      0.00     0.00     0  00:00           0           0       0.000 ltr
  WS01005181           JUNCTION      0.00     0.00     0  00:00           0           0       0.000 ltr
  WS01009841           JUNCTION      0.00     0.00     0  00:00           0           0       0.000 ltr
  WS02000078           JUNCTION      0.00     0.00     0  00:00           0           0       0.000 ltr
  WS02000112           JUNCTION      0.00     0.00     0  00:00           0           0       0.000 ltr
  WS02000136           JUNCTION      0.00     0.00     0  00:00           0           0       0.000 ltr
  WS02004053           JUNCTION      0.00     0.00     0  00:00           0           0       0.000 ltr
  WS02004401           JUNCTION      0.05    12.72     0  02:40     0.00599       0.197      16.875
  WS02005192           JUNCTION      5.39     5.39     0  02:40       0.123       0.123       2.231
  WS02005193           JUNCTION      0.09     5.53     0  02:40     0.00999       0.139       5.680
  WS02005196           JUNCTION      0.12     5.49     0  02:40      0.0131       0.134       5.459
  WS02006109           JUNCTION      0.08     6.40     0  02:40     0.00918       0.241      11.257
  WS02006110           JUNCTION      0.08     6.48     0  02:40     0.00896       0.226      12.242
  WS02006111           JUNCTION      0.24    12.22     0  02:40      0.0256       0.268       8.409
  WS02006112           JUNCTION      0.18    12.38     0  02:40       0.019       0.265      14.219
  WS02006113           JUNCTION      5.53    12.01     0  02:40       0.131         0.3       8.644
  WS02006115           JUNCTION      0.08    12.46     0  02:40     0.00916       0.244      18.498
  WS02006116           JUNCTION      0.24    12.66     0  02:40      0.0252       0.234      17.727
  WS02006183           JUNCTION      0.00     0.00     0  00:00           0           0       0.000 ltr
  WS02006228           JUNCTION      6.45     6.45     0  02:40       0.121       0.279       6.983
  WS02006229           JUNCTION      0.13     4.34     0  02:04      0.0138       0.206       8.550
  WS02006230           JUNCTION      0.07     4.32     0  02:04     0.00788       0.213      13.778
  WS02006231           JUNCTION      0.13     4.02     0  01:53      0.0142       0.213       7.674
  WS02006232           JUNCTION      3.88     5.34     0  02:05      0.0888       0.281       5.791
  WS02006234           JUNCTION      0.14     5.43     0  02:05       0.015       0.268       5.491
  WS02006235           JUNCTION      0.14     5.51     0  01:58      0.0155       0.257       3.217
  WS02006238           JUNCTION      0.15     5.37     0  01:59      0.0163       0.251       4.212
  WS02006239           JUNCTION      0.11     5.50     0  02:01       0.012       0.244       6.703
  WS02006242           JUNCTION      0.08     5.46     0  02:10      0.0088       0.237       8.408
  WS02006240           JUNCTION      0.06     5.39     0  02:10     0.00669       0.237       7.427
  WS02006243           JUNCTION      0.17     5.61     0  02:10      0.0187       0.236       7.884
  WS02006245           JUNCTION      0.07     5.66     0  02:10     0.00769       0.221       6.350
  WS02006247           JUNCTION      3.12     8.23     0  02:40      0.0723        0.26       4.581
  WS02006248           JUNCTION      0.12    15.70     0  02:40      0.0133        0.33       3.372
  WS02006249           JUNCTION      0.19     7.37     0  02:40      0.0199       0.203       7.688
  WS02006251           JUNCTION      1.68     7.24     0  02:40      0.0379       0.187       8.501
  WS02006253           JUNCTION      0.11     5.61     0  02:40      0.0119       0.149       5.351
  WS02618401           JUNCTION      0.00     0.00     0  00:00           0           0       0.000 ltr
  WSA1649              JUNCTION      0.00     0.00     0  00:00           0           0       0.000 ltr
  outfall-5            OUTFALL       0.00    15.68     0  02:40           0       0.212       0.000
  outfall-14           OUTFALL       0.00    12.69     0  02:40           0       0.162       0.000
  outfall-16           OUTFALL       0.00     0.00     0  00:00           0           0       0.000 ltr
  CC-storage           STORAGE      16.86    16.86     0  02:40       0.513       0.513       0.034
  
  
  **********************
  Node Surcharge Summary
  **********************
  
  Surcharging occurs when water rises above the top of the highest conduit.
  ---------------------------------------------------------------------
                                               Max. Height   Min. Depth
                                   Hours       Above Crown    Below Rim
  Node                 Type      Surcharged         Meters       Meters
  ---------------------------------------------------------------------
  WS01000070           JUNCTION        2.67          0.000        0.000
  WS01000323           JUNCTION        2.67          0.000        0.000
  WS01000533           JUNCTION        2.67          0.000        2.147
  WS01005172           JUNCTION        2.67          0.000        0.000
  WS01005181           JUNCTION        2.67          0.000        0.000
  WS01009841           JUNCTION        2.67          0.000        0.000
  WS02000078           JUNCTION        2.67          0.000        0.000
  WS02000112           JUNCTION        2.67          0.000        0.000
  WS02000136           JUNCTION        2.67          0.000        0.000
  WS02004053           JUNCTION        2.67          0.000        0.000
  WS02006109           JUNCTION        0.97          0.904        0.934
  WS02006110           JUNCTION        0.98          0.922        0.923
  WS02006111           JUNCTION        0.99          0.937        0.940
  WS02006112           JUNCTION        1.24          1.194        0.489
  WS02006113           JUNCTION        0.99          0.931        1.002
  WS02006115           JUNCTION        1.27          1.213        1.086
  WS02006116           JUNCTION        1.35          1.271        1.079
  WS02006183           JUNCTION        2.67          0.000        0.000
  WS02006228           JUNCTION        0.95          0.875        1.356
  WS02006229           JUNCTION        0.92          0.835        1.619
  WS02006231           JUNCTION        0.85          0.725        0.818
  WS02006232           JUNCTION        0.76          0.595        0.894
  WS02006234           JUNCTION        0.69          0.464        0.793
  WS02006235           JUNCTION        0.68          0.453        0.841
  WS02006238           JUNCTION        0.67          0.443        0.991
  WS02006239           JUNCTION        0.66          0.412        0.917
  WS02006242           JUNCTION        0.60          0.319        0.530
  WS02006240           JUNCTION        0.61          0.331        1.072
  WS02006243           JUNCTION        0.54          0.198        0.582
  WS02006245           JUNCTION        0.52          0.127        0.728
  WS02006247           JUNCTION        0.51          0.106        0.654
  WS02006249           JUNCTION        0.10          0.015        0.373
  WS02618401           JUNCTION        2.67          0.000        0.000
  WSA1649              JUNCTION        2.67          0.000        0.000
  
  
  *********************
  Node Flooding Summary
  *********************
  
  Flooding refers to all water that overflows a node, whether it ponds or not.
  --------------------------------------------------------------------------
                                                             Total   Maximum
                                 Maximum   Time of Max       Flood    Ponded
                        Hours       Rate    Occurrence      Volume     Depth
  Node                 Flooded       MLD   days hr:min    10^6 ltr    Meters
  --------------------------------------------------------------------------
  CC-storage              1.00     16.86      0  02:40       0.354     0.000
  
  
  **********************
  Storage Volume Summary
  **********************
  
  --------------------------------------------------------------------------------------------------
                         Average     Avg  Evap Exfil       Maximum     Max    Time of Max    Maximum
                          Volume    Pcnt  Pcnt  Pcnt        Volume    Pcnt     Occurrence    Outflow
  Storage Unit           1000 m3    Full  Loss  Loss       1000 m3    Full    days hr:min        MLD
  --------------------------------------------------------------------------------------------------
  CC-storage               0.134      85     0     0         0.159     100       0  01:40       0.00
  
  
  ***********************
  Outfall Loading Summary
  ***********************
  
  ---------------------------------------------------------------------------------------------------------------------------------
                         Flow       Avg       Max       Total         Total         Total         Total         Total         Total
                         Freq      Flow      Flow      Volume           COD         NH3-N            TN            TP            SS
  Outfall Node           Pcnt       MLD       MLD    10^6 ltr            kg            kg            kg            kg            kg
  ---------------------------------------------------------------------------------------------------------------------------------
  outfall-5             60.35     10.18     15.68       0.212        25.962         0.000         0.000         0.000         0.000
  outfall-14            60.24      7.79     12.69       0.162        22.407         0.000         0.000         0.000         0.000
  outfall-16             0.00      0.00      0.00       0.000         0.000         0.000         0.000         0.000         0.000
  ---------------------------------------------------------------------------------------------------------------------------------
  System                40.19     17.97     28.37       0.374        48.368         0.000         0.000         0.000         0.000
  
  
  ********************
  Link Flow Summary
  ********************
  
  -----------------------------------------------------------------------------
                                 Maximum  Time of Max   Maximum    Max/    Max/
                                  |Flow|   Occurrence   |Veloc|    Full    Full
  Link                 Type          MLD  days hr:min     m/sec    Flow   Depth
  -----------------------------------------------------------------------------
  WSL2038              CONDUIT      5.38     0  02:40      0.51    0.27    0.77
  WSL2039              CONDUIT      5.51     0  02:40      0.78    0.28    0.85
  WSL2041              CONDUIT      5.45     0  02:40      0.57    0.27    0.81
  WSL2294              CONDUIT      6.40     0  02:40      0.43    0.22    1.00
  WSL2295              CONDUIT      6.48     0  02:40      0.50    0.29    1.00
  WSL2296              CONDUIT     12.22     0  02:40      0.63    0.07    1.00
  WSL2297              CONDUIT     12.38     0  02:40      0.34    0.24    1.00
  WSL2298              CONDUIT     12.01     0  02:40      0.87    0.55    1.00
  WSL2301              CONDUIT     12.46     0  02:40      0.29    0.11    1.00
  WSL2302              CONDUIT     12.66     0  02:40      0.23    0.16    1.00
  WSL2441              CONDUIT      6.32     0  02:40      0.44    0.16    1.00
  WSL2442              CONDUIT      4.25     0  02:04      0.63    0.11    1.00
  WSL2443              CONDUIT      3.89     0  01:53      0.73    0.06    1.00
  WSL2444              CONDUIT      3.96     0  01:58      0.88    0.06    1.00
  WSL2446              CONDUIT      5.31     0  02:05      0.84    0.09    1.00
  WSL2447              CONDUIT      5.36     0  01:58      0.71    0.28    1.00
  WSL2448              CONDUIT      5.23     0  02:05      0.57    0.15    1.00
  WSL2449              CONDUIT      5.40     0  02:01      0.55    0.19    1.00
  WSL2450              CONDUIT      5.33     0  02:10      0.64    0.11    1.00
  WSL2451              CONDUIT      5.39     0  02:10      0.61    0.35    1.00
  WSL2452              CONDUIT      5.45     0  02:10      0.63    0.10    1.00
  WSL2454              CONDUIT      5.59     0  02:10      0.78    0.13    1.00
  WSL2478              CONDUIT      5.71     0  02:10      0.67    0.20    1.00
  WSL2479              CONDUIT      8.23     0  02:40      0.60    0.16    1.00
  WSL2480              CONDUIT      7.36     0  02:40      0.65    0.34    1.00
  WSL2482              CONDUIT      7.21     0  02:40      0.57    0.19    0.96
  WSL2484              CONDUIT      5.57     0  02:40      0.68    0.08    0.83
  WSL2493              CONDUIT      4.23     0  02:04      0.51    0.07    1.00
  8                    CONDUIT     15.68     0  02:40      5.49    0.21    0.31
  19                   CONDUIT      0.00     0  00:00      0.00    0.00    0.00
  17                   CONDUIT     12.69     0  02:40      5.23    0.16    0.27
  CC-Pump-1            PUMP         0.00     0  00:00              0.00
  CC-Pump-2            PUMP         0.00     0  00:00              0.00
  
  
  ***************************
  Flow Classification Summary
  ***************************
  
  -------------------------------------------------------------------------------------
                      Adjusted    ---------- Fraction of Time in Flow Class ---------- 
                       /Actual         Up    Down  Sub   Sup   Up    Down  Norm  Inlet 
  Conduit               Length    Dry  Dry   Dry   Crit  Crit  Crit  Crit  Ltd   Ctrl  
  -------------------------------------------------------------------------------------
  WSL2038                 1.00   0.00  0.00  0.00  1.00  0.00  0.00  0.00  0.02  0.00
  WSL2039                 1.00   0.00  0.00  0.00  1.00  0.00  0.00  0.00  0.00  0.00
  WSL2041                 1.00   0.00  0.00  0.00  1.00  0.00  0.00  0.00  0.48  0.00
  WSL2294                 1.00   0.00  0.00  0.00  1.00  0.00  0.00  0.00  0.00  0.00
  WSL2295                 1.00   0.00  0.00  0.00  1.00  0.00  0.00  0.00  0.00  0.00
  WSL2296                 1.00   0.00  0.00  0.00  1.00  0.00  0.00  0.00  0.25  0.00
  WSL2297                 1.00   0.00  0.00  0.00  1.00  0.00  0.00  0.00  0.00  0.00
  WSL2298                 1.00   0.00  0.00  0.00  0.94  0.06  0.00  0.00  0.00  0.00
  WSL2301                 1.00   0.00  0.00  0.00  1.00  0.00  0.00  0.00  0.06  0.00
  WSL2302                 1.00   0.00  0.00  0.00  1.00  0.00  0.00  0.00  0.01  0.00
  WSL2441                 1.00   0.00  0.00  0.00  1.00  0.00  0.00  0.00  0.00  0.00
  WSL2442                 1.00   0.00  0.00  0.00  1.00  0.00  0.00  0.00  0.24  0.00
  WSL2443                 1.00   0.00  0.00  0.00  1.00  0.00  0.00  0.00  0.44  0.00
  WSL2444                 1.00   0.00  0.00  0.00  0.81  0.19  0.00  0.00  0.35  0.00
  WSL2446                 1.00   0.00  0.00  0.00  0.78  0.22  0.00  0.00  0.05  0.00
  WSL2447                 1.00   0.00  0.00  0.00  1.00  0.00  0.00  0.00  0.00  0.00
  WSL2448                 1.00   0.00  0.00  0.00  1.00  0.00  0.00  0.00  0.00  0.00
  WSL2449                 1.00   0.00  0.00  0.00  1.00  0.00  0.00  0.00  0.04  0.00
  WSL2450                 1.00   0.00  0.00  0.00  1.00  0.00  0.00  0.00  0.64  0.00
  WSL2451                 1.00   0.00  0.00  0.00  1.00  0.00  0.00  0.00  0.00  0.00
  WSL2452                 1.00   0.00  0.00  0.00  1.00  0.00  0.00  0.00  0.65  0.00
  WSL2454                 1.00   0.00  0.00  0.00  1.00  0.00  0.00  0.00  0.03  0.00
  WSL2478                 1.00   0.00  0.00  0.00  1.00  0.00  0.00  0.00  0.00  0.00
  WSL2479                 1.00   0.00  0.00  0.00  1.00  0.00  0.00  0.00  0.71  0.00
  WSL2480                 1.00   0.00  0.00  0.00  1.00  0.00  0.00  0.00  0.00  0.00
  WSL2482                 1.00   0.00  0.00  0.00  1.00  0.00  0.00  0.00  0.73  0.00
  WSL2484                 1.00   0.00  0.00  0.00  0.99  0.01  0.00  0.00  0.73  0.00
  WSL2493                 1.00   0.00  0.00  0.00  1.00  0.00  0.00  0.00  0.07  0.00
  8                       1.00   0.40  0.00  0.00  0.00  0.60  0.00  0.00  0.01  0.00
  19                      1.00   1.00  0.00  0.00  0.00  0.00  0.00  0.00  0.00  0.00
  17                      1.00   0.40  0.00  0.00  0.00  0.60  0.00  0.00  0.00  0.00
  
  
  *************************
  Conduit Surcharge Summary
  *************************
  
  ----------------------------------------------------------------------------
                                                           Hours        Hours 
                         --------- Hours Full --------   Above Full   Capacity
  Conduit                Both Ends  Upstream  Dnstream   Normal Flow   Limited
  ----------------------------------------------------------------------------
  WSL2294                     0.97      0.97      0.98      0.01         0.01
  WSL2295                     0.98      0.98      0.99      0.01         0.01
  WSL2296                     0.99      0.99      1.57      0.01         0.01
  WSL2297                     1.24      1.24      1.27      0.01         0.01
  WSL2298                     0.99      0.99      0.99      0.01         0.01
  WSL2301                     1.27      1.27      1.35      0.01         0.01
  WSL2302                     1.35      1.35      1.42      0.01         0.01
  WSL2441                     0.95      0.95      0.97      0.01         0.01
  WSL2442                     0.95      0.95      0.98      0.01         0.01
  WSL2443                     0.85      0.85      0.95      0.01         0.01
  WSL2444                     0.76      0.76      0.85      0.01         0.01
  WSL2446                     0.69      0.69      0.76      0.01         0.01
  WSL2447                     0.68      0.68      0.69      0.01         0.01
  WSL2448                     0.67      0.67      0.68      0.01         0.01
  WSL2449                     0.66      0.66      0.67      0.01         0.01
  WSL2450                     0.61      0.61      0.66      0.01         0.01
  WSL2451                     0.60      0.60      0.61      0.01         0.01
  WSL2452                     0.54      0.54      0.60      0.01         0.01
  WSL2454                     0.52      0.52      0.54      0.01         0.01
  WSL2478                     0.51      0.51      0.52      0.01         0.01
  WSL2479                     0.20      0.20      0.51      0.01         0.01
  WSL2480                     0.10      0.10      0.20      0.01         0.01
  WSL2482                     0.01      0.01      0.10      0.01         0.01
  WSL2493                     0.92      0.92      0.95      0.01         0.01
  
  
  ***************
  Pumping Summary
  ***************
  
  ---------------------------------------------------------------------------------------------------------
                                                  Min       Avg       Max     Total     Power    % Time Off
                        Percent   Number of      Flow      Flow      Flow    Volume     Usage    Pump Curve
  Pump                 Utilized   Start-Ups       MLD       MLD       MLD  10^6 ltr     Kw-hr    Low   High
  ---------------------------------------------------------------------------------------------------------
  CC-Pump-1                0.00           0      0.00      0.00      0.00     0.000      0.00    0.0    0.0
  CC-Pump-2                0.00           0      0.00      0.00      0.00     0.000      0.00    0.0    0.0
  
  
  ***************************
  Link Pollutant Load Summary
  ***************************
  
  ------------------------------------------------------------------------------------------
                                 COD         NH3-N            TN            TP            SS
  Link                            kg            kg            kg            kg            kg
  ------------------------------------------------------------------------------------------
  WSL2038                     16.195         0.000         0.000         0.000         0.000
  WSL2039                     17.525         0.000         0.000         0.000         0.000
  WSL2041                     16.754         0.000         0.000         0.000         0.000
  WSL2294                     34.900         0.000         0.000         0.000         0.000
  WSL2295                     27.788         0.000         0.000         0.000         0.000
  WSL2296                     28.416         0.000         0.000         0.000         0.000
  WSL2297                     28.846         0.000         0.000         0.000         0.000
  WSL2298                     25.767         0.000         0.000         0.000         0.000
  WSL2301                     28.174         0.000         0.000         0.000         0.000
  WSL2302                     28.311         0.000         0.000         0.000         0.000
  WSL2441                     41.140         0.000         0.000         0.000         0.000
  WSL2442                     35.875         0.000         0.000         0.000         0.000
  WSL2443                     32.885         0.000         0.000         0.000         0.000
  WSL2444                     31.090         0.000         0.000         0.000         0.000
  WSL2446                     31.892         0.000         0.000         0.000         0.000
  WSL2447                     31.522         0.000         0.000         0.000         0.000
  WSL2448                     30.604         0.000         0.000         0.000         0.000
  WSL2449                     30.004         0.000         0.000         0.000         0.000
  WSL2450                     29.293         0.000         0.000         0.000         0.000
  WSL2451                     28.710         0.000         0.000         0.000         0.000
  WSL2452                     28.105         0.000         0.000         0.000         0.000
  WSL2454                     26.196         0.000         0.000         0.000         0.000
  WSL2478                     25.202         0.000         0.000         0.000         0.000
  WSL2479                     26.160         0.000         0.000         0.000         0.000
  WSL2480                     26.442         0.000         0.000         0.000         0.000
  WSL2482                     24.450         0.000         0.000         0.000         0.000
  WSL2484                     18.807         0.000         0.000         0.000         0.000
  WSL2493                     37.777         0.000         0.000         0.000         0.000
  8                           25.962         0.000         0.000         0.000         0.000
  19                           0.000         0.000         0.000         0.000         0.000
  17                          22.407         0.000         0.000         0.000         0.000
  CC-Pump-1                    0.000         0.000         0.000         0.000         0.000
  CC-Pump-2                    0.000         0.000         0.000         0.000         0.000
  

  Analysis begun on:  Fri Nov 22 19:48:50 2019
  Analysis ended on:  Fri Nov 22 19:48:50 2019
  Total elapsed time: < 1 sec