
  EPA STORM WATER MANAGEMENT MODEL - VERSION 5.1 (Build 5.2.0.dev1)
  --------------------------------------------------------------

  
  *********************************************************
  NOTE: The summary statistics displayed in this report are
  based on results found at every computational time step,  
  not just on results from each reporting time step.
  *********************************************************
  
  ****************
  Analysis Options
  ****************
  Flow Units ............... MLD
  Process Models:
    Rainfall/Runoff ........ YES
    RDII ................... NO
    Snowmelt ............... NO
    Groundwater ............ NO
    Flow Routing ........... YES
    Ponding Allowed ........ NO
    Water Quality .......... YES
  Infiltration Method ...... GREEN_AMPT
  Flow Routing Method ...... DYNWAVE
  Starting Date ............ 08/28/2015 08:00:00
  Ending Date .............. 08/28/2015 12:00:00
  Antecedent Dry Days ...... 4.0
  Report Time Step ......... 00:01:00
  Wet Time Step ............ 00:01:00
  Dry Time Step ............ 00:01:00
  Routing Time Step ........ 5.00 sec
  Variable Time Step ....... YES
  Maximum Trials ........... 8
  Number of Threads ........ 1
  Head Tolerance ........... 0.001500 m
  
  
  **************************        Volume         Depth
  Runoff Quantity Continuity     hectare-m            mm
  **************************     ---------       -------
  Total Precipitation ......         7.260        25.740
  Evaporation Loss .........         0.000         0.000
  Infiltration Loss ........         2.918        10.344
  Surface Runoff ...........         2.138         7.581
  Final Storage ............         2.208         7.829
  Continuity Error (%) .....        -0.057
  
  
  **************************           COD         NH3-N            TN            TP            SS
  Runoff Quality Continuity             kg            kg            kg            kg            kg
  **************************    ----------    ----------    ----------    ----------    ----------
  Initial Buildup ..........     13074.240         0.000         0.000         0.000         0.000
  Surface Buildup ..........       106.707         0.000         0.000         0.000         0.000
  Wet Deposition ...........         0.000         0.000         0.000         0.000         0.000
  Sweeping Removal .........         0.000         0.000         0.000         0.000         0.000
  Infiltration Loss ........       267.073         0.000         0.000         0.000         0.000
  BMP Removal ..............         0.000         0.000         0.000         0.000         0.000
  Surface Runoff ...........      4650.801         0.000         0.000         0.000         0.000
  Remaining Buildup ........      8259.901         0.000         0.000         0.000         0.000
  Continuity Error (%) .....         0.024         0.000         0.000         0.000         0.000
  
  
  **************************        Volume        Volume
  Flow Routing Continuity        hectare-m      10^6 ltr
  **************************     ---------     ---------
  Dry Weather Inflow .......         0.000         0.000
  Wet Weather Inflow .......         2.132        21.323
  Groundwater Inflow .......         0.000         0.000
  RDII Inflow ..............         0.000         0.000
  External Inflow ..........         0.561         5.611
  External Outflow .........         1.410        14.100
  Flooding Loss ............         1.228        12.277
  Evaporation Loss .........         0.000         0.000
  Exfiltration Loss ........         0.000         0.000
  Initial Stored Volume ....         0.000         0.000
  Final Stored Volume ......         0.112         1.115
  Continuity Error (%) .....        -2.074
  
  
  **************************           COD         NH3-N            TN            TP            SS
  Quality Routing Continuity            kg            kg            kg            kg            kg
  **************************    ----------    ----------    ----------    ----------    ----------
  Dry Weather Inflow .......         0.000         0.000         0.000         0.000         0.000
  Wet Weather Inflow .......      4642.678         0.000         0.000         0.000         0.000
  Groundwater Inflow .......         0.000         0.000         0.000         0.000         0.000
  RDII Inflow ..............         0.000         0.000         0.000         0.000         0.000
  External Inflow ..........       937.015         0.000         0.000         0.000         0.000
  External Outflow .........      2663.310         0.000         0.000         0.000         0.000
  Flooding Loss ............      2615.181         0.000         0.000         0.000         0.000
  Exfiltration Loss ........         0.000         0.000         0.000         0.000         0.000
  Mass Reacted .............         0.000         0.000         0.000         0.000         0.000
  Initial Stored Mass ......         0.000         0.000         0.000         0.000         0.000
  Final Stored Mass ........       136.707         0.000         0.000         0.000         0.000
  Continuity Error (%) .....         2.948         0.000         0.000         0.000         0.000
  
  
  *************************
  Highest Continuity Errors
  *************************
  Node WS02003099 (1.08%)
  
  
  ***************************
  Time-Step Critical Elements
  ***************************
  Link 8 (50.75%)
  Link WSL2448 (22.95%)
  Link WSL1477 (12.96%)
  Link XRpipe (4.68%)
  Link WSL2012 (2.33%)
  
  
  ********************************
  Highest Flow Instability Indexes
  ********************************
  Link WSL1477 (72)
  Link WSL1516 (65)
  Link WSL1476 (30)
  Link WSL1521 (29)
  Link WSL1515 (17)
  
  
  *************************
  Routing Time Step Summary
  *************************
  Minimum Time Step           :     0.50 sec
  Average Time Step           :     1.48 sec
  Maximum Time Step           :     5.00 sec
  Percent in Steady State     :    -0.00
  Average Iterations per Step :     2.57
  Percent Not Converging      :     6.05
  
  
  ***************************
  Subcatchment Runoff Summary
  ***************************
  
  --------------------------------------------------------------------------------------------------------
                            Total      Total      Total      Total      Total       Total     Peak  Runoff
                           Precip      Runon       Evap      Infil     Runoff      Runoff   Runoff   Coeff
  Subcatchment                 mm         mm         mm         mm         mm    10^6 ltr      MLD
  --------------------------------------------------------------------------------------------------------
  1                         25.74      36.83       0.00      11.28      33.98        0.41     7.38   0.543
  2                         25.74       0.00       0.00       8.89       9.90        0.33     6.80   0.385
  3                         25.74       0.00       0.00       8.97       9.31        0.47     9.64   0.362
  4                         25.74       0.00       0.00       8.84      10.25        0.27     5.58   0.398
  5                         25.74      24.27       0.00      10.86      25.39        0.43     8.03   0.508
  6                         25.74       0.00       0.00       8.97       9.35        0.46     9.38   0.363
  7                         25.74       0.00       0.00      11.07       8.01       12.81   235.63   0.311
  8                         25.74       0.00       0.00       8.94       9.56        0.41     8.25   0.372
  9                         25.74       9.46       0.00       9.90      14.31        0.54    10.24   0.407
  17                        25.74       0.00       0.00       8.91       9.77        0.36     7.30   0.380
  18                        25.74       0.00       0.00       8.94       9.53        0.41     8.41   0.370
  28                        25.74      33.82       0.00      11.51      28.29        0.74    13.14   0.475
  29                        25.74      14.31       0.00      10.04      17.51        0.42     7.60   0.437
  30                        25.74      37.39       0.00      11.39      37.25        0.35     6.58   0.590
  31                        25.74       0.00       0.00       8.90       9.82        0.35     7.10   0.382
  33                        25.74       0.00       0.00       8.55      12.11        0.11     2.20   0.471
  34                        25.74      21.31       0.00      10.73      22.80        0.47     8.76   0.485
  35                        25.74       0.00       0.00       8.87      10.06        0.30     6.22   0.391
  36                        25.74      20.41       0.00      10.95      18.39        1.09    19.68   0.399
  39                        25.74       0.00       0.00       8.90       9.88        0.34     6.87   0.384
  40                        25.74       5.32       0.00       9.50      12.19        0.48     9.25   0.392
  41                        25.74       0.00       0.00       8.77      10.75        0.21     4.28   0.418
  42                        25.74       0.00       0.00       8.81      10.50        0.24     4.90   0.408
  43                        25.74       0.00       0.00       8.25      13.68        0.05     1.06   0.532
  44                        25.74     305.04       0.00      17.57     271.36        1.00    19.01   0.820
  45                        25.74       0.00       0.00       8.60      11.82        0.12     2.53   0.459
  46                        25.74      17.22       0.00      10.36      19.98        0.43     7.87   0.465
  47                        25.74       0.00       0.00       8.62      11.69        0.13     2.69   0.454
  48                        25.74       8.19       0.00       9.52      15.70        0.25     4.78   0.463
  55                        25.74      12.29       0.00       9.62      20.01        0.17     3.19   0.526
  56                        25.74      18.87       0.00      10.49      20.93        0.45     8.24   0.469
  57                        25.74       0.00       0.00       8.97       9.33        0.47     9.48   0.363
  59                        25.74       0.00       0.00       8.53      12.17        0.10     2.14   0.473
  60                        25.74      26.60       0.00      10.36      31.87        0.17     3.20   0.609
  61                        25.74       0.00       0.00       9.15       7.76        1.40    27.95   0.301
  62                        25.74       0.00       0.00       9.16       7.70        1.46    29.26   0.299
  64                        25.74       0.00       0.00       8.64      11.55        0.14     2.87   0.449
  
  
  ****************************
  Subcatchment Washoff Summary
  ****************************
  
  ------------------------------------------------------------------------------------------
                                 COD         NH3-N            TN            TP            SS
  Subcatchment                    kg            kg            kg            kg            kg
  ------------------------------------------------------------------------------------------
  1                           77.752         0.000         0.000         0.000         0.000
  2                            0.000         0.000         0.000         0.000         0.000
  3                            0.000         0.000         0.000         0.000         0.000
  4                           63.160         0.000         0.000         0.000         0.000
  5                          125.178         0.000         0.000         0.000         0.000
  6                          103.408         0.000         0.000         0.000         0.000
  7                         2691.741         0.000         0.000         0.000         0.000
  8                           91.585         0.000         0.000         0.000         0.000
  9                          159.882         0.000         0.000         0.000         0.000
  17                          81.647         0.000         0.000         0.000         0.000
  18                          93.299         0.000         0.000         0.000         0.000
  28                         253.662         0.000         0.000         0.000         0.000
  29                         133.933         0.000         0.000         0.000         0.000
  30                          92.789         0.000         0.000         0.000         0.000
  31                          79.514         0.000         0.000         0.000         0.000
  33                          25.542         0.000         0.000         0.000         0.000
  34                         141.961         0.000         0.000         0.000         0.000
  35                          70.083         0.000         0.000         0.000         0.000
  36                         368.588         0.000         0.000         0.000         0.000
  39                          77.006         0.000         0.000         0.000         0.000
  40                         131.074         0.000         0.000         0.000         0.000
  41                          49.041         0.000         0.000         0.000         0.000
  42                          55.829         0.000         0.000         0.000         0.000
  43                          12.155         0.000         0.000         0.000         0.000
  44                         344.897         0.000         0.000         0.000         0.000
  45                          29.344         0.000         0.000         0.000         0.000
  46                         137.137         0.000         0.000         0.000         0.000
  47                          31.196         0.000         0.000         0.000         0.000
  48                          72.329         0.000         0.000         0.000         0.000
  55                          48.594         0.000         0.000         0.000         0.000
  56                         139.885         0.000         0.000         0.000         0.000
  57                         104.405         0.000         0.000         0.000         0.000
  59                          24.813         0.000         0.000         0.000         0.000
  60                          45.586         0.000         0.000         0.000         0.000
  61                         287.069         0.000         0.000         0.000         0.000
  62                         299.467         0.000         0.000         0.000         0.000
  64                          33.245         0.000         0.000         0.000         0.000
  ------------------------------------------------------------------------------------------
  System                    6576.801         0.000         0.000         0.000         0.000
  
  
  ******************
  Node Depth Summary
  ******************
  
  ---------------------------------------------------------------------------------
                                 Average  Maximum  Maximum  Time of Max    Reported
                                   Depth    Depth      HGL   Occurrence   Max Depth
  Node                 Type       Meters   Meters   Meters  days hr:min      Meters
  ---------------------------------------------------------------------------------
  WS01000070           JUNCTION     0.00     0.00     0.00     0  00:00        0.00
  WS01000323           JUNCTION     0.00     0.00     0.00     0  00:00        0.00
  WS01000533           JUNCTION     0.00     0.00     6.86     0  00:00        0.00
  WS01005172           JUNCTION     0.00     0.00     0.00     0  00:00        0.00
  WS01005181           JUNCTION     0.00     0.00     0.00     0  00:00        0.00
  WS01009841           JUNCTION     0.00     0.00     0.00     0  00:00        0.00
  WS02000078           JUNCTION     0.00     0.00     0.00     0  00:00        0.00
  WS02000112           JUNCTION     0.00     0.00     0.00     0  00:00        0.00
  WS02000136           JUNCTION     0.00     0.00     0.00     0  00:00        0.00
  WS02001211           JUNCTION     0.49     0.65     5.49     0  03:00        0.64
  WS02001212           JUNCTION     0.48     0.68     5.48     0  03:00        0.68
  WS02001213           JUNCTION     0.58     0.77     5.47     0  02:59        0.76
  WS02003059           JUNCTION     0.59     0.84     5.49     0  03:01        0.83
  WS02003060           JUNCTION     0.67     0.93     5.48     0  02:57        0.92
  WS02003066           JUNCTION     0.32     0.52     5.82     0  03:00        0.49
  WS02003067           JUNCTION     0.55     0.85     6.17     0  02:58        0.83
  WS02003071           JUNCTION     0.72     0.95     5.35     0  02:59        0.95
  WS02003072           JUNCTION     0.62     0.82     5.19     0  03:03        0.82
  WS02003073           JUNCTION     0.69     0.96     5.20     0  03:29        0.94
  WS02003076           JUNCTION     0.63     0.88     5.11     0  03:16        0.85
  WS02003077           JUNCTION     0.11     0.17     5.18     0  03:29        0.16
  WS02003078           JUNCTION     0.07     0.10     7.00     0  02:53        0.10
  WS02003079           JUNCTION     0.23     0.34     7.25     0  02:53        0.34
  WS02003093           JUNCTION     0.08     0.16     7.50     0  02:52        0.16
  WS02003094           JUNCTION     0.19     0.28     7.50     0  02:52        0.28
  WS02003098           JUNCTION     0.14     0.23     7.40     0  02:53        0.23
  WS02003099           JUNCTION     0.25     0.37     7.41     0  02:53        0.37
  WS02003102           JUNCTION     0.23     0.35     7.38     0  02:52        0.35
  WS02003103           JUNCTION     0.25     0.38     7.35     0  02:53        0.38
  WS02003104           JUNCTION     0.25     0.37     7.33     0  02:53        0.37
  WS02003106           JUNCTION     0.25     0.36     7.29     0  02:53        0.36
  WS02004050           JUNCTION     0.44     0.59     4.81     0  03:03        0.59
  WS02004053           JUNCTION     0.00     0.00     0.00     0  00:00        0.00
  WS02004136           JUNCTION     0.16     0.21     6.94     0  00:01        0.18
  WS02004139           JUNCTION     0.40     0.52     5.48     0  02:59        0.52
  WS02004401           JUNCTION     0.63     0.94     6.94     0  03:01        0.94
  WS02004402           JUNCTION     0.64     0.95     6.91     0  03:01        0.95
  WS02004403           JUNCTION     0.64     0.95     6.88     0  02:59        0.95
  WS02004404           JUNCTION     0.71     1.01     6.86     0  02:59        1.01
  WS02004405           JUNCTION     0.71     1.00     6.84     0  02:59        1.00
  WS02004406           JUNCTION     0.68     0.96     6.79     0  02:59        0.96
  WS02004407           JUNCTION     0.64     0.91     6.71     0  02:59        0.91
  WS02004409           JUNCTION     0.62     0.87     6.64     0  02:58        0.87
  WS02004410           JUNCTION     0.59     0.83     6.55     0  02:58        0.83
  WS02004411           JUNCTION     0.55     0.77     6.45     0  02:58        0.77
  WS02004412           JUNCTION     0.48     0.69     6.33     0  02:57        0.69
  WS02004413           JUNCTION     0.50     0.74     6.21     0  02:58        0.73
  WS02004997           JUNCTION     5.93     6.69     8.30     0  02:43        6.69
  WS02005192           JUNCTION     0.42     2.18    10.05     0  02:45        0.77
  WS02005193           JUNCTION     0.45     3.22    11.04     0  02:45        1.44
  WS02005196           JUNCTION     0.43     1.77     9.62     0  02:46        0.80
  WS02006109           JUNCTION     0.67     0.95     7.57     0  03:00        0.95
  WS02006110           JUNCTION     0.59     0.83     7.43     0  03:01        0.83
  WS02006111           JUNCTION     0.36     0.55     7.13     0  03:01        0.55
  WS02006112           JUNCTION     0.64     0.95     7.07     0  03:01        0.95
  WS02006113           JUNCTION     0.50     0.71     7.30     0  03:01        0.71
  WS02006115           JUNCTION     0.61     0.91     7.01     0  03:01        0.91
  WS02006116           JUNCTION     0.64     0.94     6.98     0  03:01        0.94
  WS02006183           JUNCTION     0.00     0.00     0.00     0  00:00        0.00
  WS02006228           JUNCTION     0.71     1.04     7.69     0  03:01        1.04
  WS02006229           JUNCTION     0.70     1.04     7.73     0  03:01        1.04
  WS02006230           JUNCTION     0.74     1.12     7.87     0  03:01        1.12
  WS02006231           JUNCTION     0.69     1.10     8.00     0  03:00        1.10
  WS02006232           JUNCTION     0.67     1.08     8.11     0  03:00        1.08
  WS02006234           JUNCTION     0.66     1.06     8.22     0  03:00        1.06
  WS02006235           JUNCTION     0.71     1.13     8.30     0  03:00        1.13
  WS02006238           JUNCTION     0.72     1.14     8.32     0  02:50        1.14
  WS02006239           JUNCTION     0.71     1.12     8.33     0  02:50        1.12
  WS02006242           JUNCTION     0.68     1.14     8.44     0  02:44        1.05
  WS02006240           JUNCTION     0.66     1.08     8.37     0  02:44        1.05
  WS02006243           JUNCTION     0.60     1.42     8.84     0  02:43        0.95
  WS02006245           JUNCTION     0.57     1.09     8.58     0  02:44        0.89
  WS02006247           JUNCTION     0.58     1.02     8.53     0  02:44        0.87
  WS02006248           JUNCTION     0.51     0.80     8.39     0  03:00        0.80
  WS02006249           JUNCTION     0.54     1.09     8.69     0  02:44        0.90
  WS02006251           JUNCTION     0.54     1.80     9.47     0  02:46        1.79
  WS02006253           JUNCTION     0.45     2.14     9.94     0  02:46        2.13
  WS02618401           JUNCTION     0.00     0.00     0.00     0  00:00        0.00
  WS8802               JUNCTION     0.00     0.00     4.38     0  00:00        0.00
  WSA1649              JUNCTION     0.00     0.00     0.00     0  00:00        0.00
  WSF200               JUNCTION     0.33     0.55     5.65     0  02:58        0.49
  XR-Inflow            JUNCTION     5.79     6.55     8.36     0  01:57        6.55
  WS02004114           JUNCTION     5.89     6.66     8.26     0  02:44        6.65
  outfall-2            OUTFALL      0.00     0.00     7.00     0  00:00        0.00
  outfall-5            OUTFALL      0.09     0.20     7.86     0  03:00        0.20
  outfall-14           OUTFALL      0.00     0.00     7.66     0  00:00        0.00
  outfall-16           OUTFALL      0.00     0.00     8.39     0  00:00        0.00
  12                   OUTFALL      0.44     0.59     0.59     0  03:00        0.59
  XR-storage           STORAGE      6.90     7.72     8.22     0  01:24        7.72
  CC-storage           STORAGE      2.03     5.63     8.81     0  02:24        5.63
  JK-storage           STORAGE      1.71     4.80     7.80     0  02:22        4.80
  
  
  *******************
  Node Inflow Summary
  *******************
  
  -------------------------------------------------------------------------------------------------
                                  Maximum  Maximum                  Lateral       Total        Flow
                                  Lateral    Total  Time of Max      Inflow      Inflow     Balance
                                   Inflow   Inflow   Occurrence      Volume      Volume       Error
  Node                 Type           MLD      MLD  days hr:min    10^6 ltr    10^6 ltr     Percent
  -------------------------------------------------------------------------------------------------
  WS01000070           JUNCTION      0.00     0.00     0  00:00           0           0       0.000 ltr
  WS01000323           JUNCTION      0.00     0.00     0  00:00           0           0       0.000 ltr
  WS01000533           JUNCTION      0.00     0.00     0  00:00           0           0       0.000 ltr
  WS01005172           JUNCTION      0.00     0.00     0  00:00           0           0       0.000 ltr
  WS01005181           JUNCTION      0.00     0.00     0  00:00           0           0       0.000 ltr
  WS01009841           JUNCTION      0.00     0.00     0  00:00           0           0       0.000 ltr
  WS02000078           JUNCTION      0.00     0.00     0  00:00           0           0       0.000 ltr
  WS02000112           JUNCTION      0.00     0.00     0  00:00           0           0       0.000 ltr
  WS02000136           JUNCTION      0.00     0.00     0  00:00           0           0       0.000 ltr
  WS02001211           JUNCTION      0.25    36.85     0  03:35      0.0407        4.47       0.640
  WS02001212           JUNCTION      0.21    39.81     0  03:46      0.0346        4.47       0.380
  WS02001213           JUNCTION      0.30    53.47     0  03:43      0.0489         4.5       0.519
  WS02003059           JUNCTION      0.23    40.57     0  03:21      0.0378        4.52       0.713
  WS02003060           JUNCTION      0.16   180.15     0  02:58      0.0252        12.2       0.399
  WS02003066           JUNCTION      0.08   170.53     0  02:58      0.0122        7.71       0.153
  WS02003067           JUNCTION      0.26   130.36     0  02:58      0.0395        7.71       0.169
  WS02003071           JUNCTION      0.35   164.18     0  02:59      0.0538        12.2       0.488
  WS02003072           JUNCTION      0.24   161.84     0  03:00      0.0382        12.2       0.289
  WS02003073           JUNCTION      0.07   180.92     0  03:00     0.00978        13.2       0.270
  WS02003076           JUNCTION      0.72   185.36     0  03:03        0.12        13.2       0.148
  WS02003077           JUNCTION      0.04    18.97     0  02:53      0.0059       0.972       0.104
  WS02003078           JUNCTION      0.03    21.63     0  02:45     0.00419       0.966      -0.007
  WS02003079           JUNCTION      0.04    18.46     0  02:53     0.00561       0.964       0.254
  WS02003093           JUNCTION      0.02     0.15     0  02:38     0.00306     0.00418       7.887
  WS02003094           JUNCTION     10.30    10.31     0  02:50       0.549       0.553       0.810
  WS02003098           JUNCTION      0.02    10.31     0  02:52     0.00293       0.551       0.538
  WS02003099           JUNCTION      0.07    10.39     0  02:53      0.0109       0.559       1.089
  WS02003102           JUNCTION      8.27    18.39     0  02:51       0.409       0.962       0.556
  WS02003103           JUNCTION      0.02    18.38     0  02:52     0.00239       0.959       0.388
  WS02003104           JUNCTION      0.02    18.39     0  02:52     0.00302       0.958       0.331
  WS02003106           JUNCTION      0.05    18.43     0  02:53     0.00727       0.962       0.404
  WS02004050           JUNCTION      0.72   196.69     0  03:02       0.119        13.3       0.604
  WS02004053           JUNCTION      0.00     0.00     0  00:00           0           0       0.000 ltr
  WS02004136           JUNCTION      0.44    32.92     0  01:40      0.0703        4.38       0.069
  WS02004139           JUNCTION      0.38    39.53     0  00:01      0.0619        4.44       0.410
  WS02004401           JUNCTION      0.05    88.43     0  03:02     0.00897        5.65       0.205
  WS02004402           JUNCTION      0.22    88.70     0  03:02      0.0335        5.67       0.194
  WS02004403           JUNCTION      0.23    88.93     0  03:01      0.0349         5.7       0.175
  WS02004404           JUNCTION      0.24    89.13     0  03:02      0.0365        5.72       0.151
  WS02004405           JUNCTION      5.64    93.89     0  03:01       0.284           6       0.216
  WS02004406           JUNCTION     13.26   107.06     0  03:01       0.763        6.75       0.300
  WS02004407           JUNCTION      0.11   107.34     0  03:01      0.0171        6.75       0.270
  WS02004409           JUNCTION      8.22   115.55     0  03:00       0.465        7.19       0.226
  WS02004410           JUNCTION      0.15   115.83     0  03:00      0.0226         7.2       0.226
  WS02004411           JUNCTION      0.25   116.44     0  03:00      0.0379        7.22       0.201
  WS02004412           JUNCTION      9.47   125.51     0  02:59       0.476        7.68       0.163
  WS02004413           JUNCTION      0.11   126.89     0  02:59      0.0172        7.69       0.159
  WS02004997           JUNCTION      0.42    63.65     0  02:44      0.0693        7.72       0.536
  WS02005192           JUNCTION      9.58    10.08     0  02:45       0.483       0.484       0.112
  WS02005193           JUNCTION      0.09    16.76     0  02:45      0.0146       0.523       0.180
  WS02005196           JUNCTION      0.12    13.18     0  02:45       0.019       0.505       0.284
  WS02006109           JUNCTION      0.08    78.61     0  03:01      0.0135        5.09       0.240
  WS02006110           JUNCTION      0.08    78.69     0  03:01      0.0132        5.09       0.224
  WS02006111           JUNCTION      0.24    87.88     0  02:58      0.0366         5.6       0.078
  WS02006112           JUNCTION      0.18    87.88     0  02:58      0.0273        5.63       0.206
  WS02006113           JUNCTION      9.79    87.69     0  02:56         0.5        5.58       0.157
  WS02006115           JUNCTION      0.08    87.98     0  03:01      0.0134        5.63       0.211
  WS02006116           JUNCTION      0.24    88.32     0  03:02       0.036        5.65       0.208
  WS02006183           JUNCTION      0.00     0.00     0  00:00           0           0       0.000 ltr
  WS02006228           JUNCTION     19.16    78.54     0  03:01        1.03        5.08       0.178
  WS02006229           JUNCTION      0.13    61.02     0  02:50        0.02        4.06       0.184
  WS02006230           JUNCTION      0.07    61.19     0  02:50      0.0116        4.05       0.180
  WS02006231           JUNCTION      0.13    61.12     0  02:50      0.0205        4.04       0.077
  WS02006232           JUNCTION      6.88    61.00     0  02:50       0.347        4.02       0.084
  WS02006234           JUNCTION      0.14    55.79     0  03:13      0.0216        3.68       0.081
  WS02006235           JUNCTION      0.14    55.67     0  03:13      0.0223        3.66       0.053
  WS02006238           JUNCTION      0.15    55.55     0  03:13      0.0235        3.64       0.076
  WS02006239           JUNCTION      0.11    34.65     0  03:38      0.0174        2.04       0.230
  WS02006242           JUNCTION      0.08    34.33     0  02:43      0.0129        2.02       0.296
  WS02006240           JUNCTION      0.06    33.95     0  03:38     0.00992        2.03       0.197
  WS02006243           JUNCTION      0.17    36.65     0  02:43      0.0269        2.02       0.179
  WS02006245           JUNCTION      0.07    38.15     0  02:43      0.0113        1.99       0.155
  WS02006247           JUNCTION      7.52    39.25     0  02:43       0.435        1.98       0.153
  WS02006248           JUNCTION      0.12    47.95     0  02:50      0.0192        2.38       0.065
  WS02006249           JUNCTION      0.19    47.83     0  02:50      0.0286        2.37       0.105
  WS02006251           JUNCTION      3.25    47.65     0  02:50       0.176        2.34       0.082
  WS02006253           JUNCTION      0.11    44.34     0  02:50      0.0173        2.17       0.033
  WS02618401           JUNCTION      0.00     0.00     0  00:00           0           0       0.000 ltr
  WS8802               JUNCTION      0.00     0.00     0  00:00           0           0       0.000 ltr
  WSA1649              JUNCTION      0.00     0.00     0  00:00           0           0       0.000 ltr
  WSF200               JUNCTION      0.14   150.95     0  03:02      0.0216        7.72       0.015
  XR-Inflow            JUNCTION    253.65   253.65     0  03:00        16.1        16.1       0.171
  WS02004114           JUNCTION      0.57    64.20     0  02:44      0.0916        7.78       0.348
  outfall-2            OUTFALL       0.00     0.00     0  00:00           0           0       0.000 ltr
  outfall-5            OUTFALL       0.00    36.95     0  03:00           0       0.834       0.000
  outfall-14           OUTFALL       0.00     0.00     0  00:00           0           0       0.000 ltr
  outfall-16           OUTFALL       0.00     0.00     0  00:00           0           0       0.000 ltr
  12                   OUTFALL       0.00   181.47     0  03:00           0        13.3       0.000
  XR-storage           STORAGE       0.00    64.20     0  02:44           0        7.75      -0.741
  CC-storage           STORAGE      29.57    29.57     0  02:49        1.68        1.68     -11.274
  JK-storage           STORAGE      30.26    30.26     0  02:49        1.64        1.64     -12.191
  
  
  **********************
  Node Surcharge Summary
  **********************
  
  Surcharging occurs when water rises above the top of the highest conduit.
  ---------------------------------------------------------------------
                                               Max. Height   Min. Depth
                                   Hours       Above Crown    Below Rim
  Node                 Type      Surcharged         Meters       Meters
  ---------------------------------------------------------------------
  WS01000070           JUNCTION        4.00          0.000        0.000
  WS01000323           JUNCTION        4.00          0.000        0.000
  WS01000533           JUNCTION        4.00          0.000        2.147
  WS01005172           JUNCTION        4.00          0.000        0.000
  WS01005181           JUNCTION        4.00          0.000        0.000
  WS01009841           JUNCTION        4.00          0.000        0.000
  WS02000078           JUNCTION        4.00          0.000        0.000
  WS02000112           JUNCTION        4.00          0.000        0.000
  WS02000136           JUNCTION        4.00          0.000        0.000
  WS02004053           JUNCTION        4.00          0.000        0.000
  WS02004404           JUNCTION        0.13          0.011        2.769
  WS02004405           JUNCTION        0.04          0.003        2.797
  WS02004997           JUNCTION        3.07          5.794        0.206
  WS02005192           JUNCTION        0.51          1.581        1.238
  WS02005193           JUNCTION        0.57          2.617        0.000
  WS02005196           JUNCTION        0.53          1.174        1.532
  WS02006109           JUNCTION        0.71          0.152        1.686
  WS02006110           JUNCTION        0.28          0.032        1.813
  WS02006183           JUNCTION        4.00          0.000        0.000
  WS02006228           JUNCTION        0.90          0.243        1.988
  WS02006229           JUNCTION        0.88          0.243        2.211
  WS02006231           JUNCTION        0.99          0.399        1.144
  WS02006232           JUNCTION        0.94          0.384        1.105
  WS02006234           JUNCTION        0.89          0.362        0.895
  WS02006235           JUNCTION        0.92          0.427        0.867
  WS02006238           JUNCTION        0.93          0.440        0.994
  WS02006239           JUNCTION        0.93          0.421        0.908
  WS02006242           JUNCTION        0.92          0.442        0.407
  WS02006240           JUNCTION        0.90          0.377        1.026
  WS02006243           JUNCTION        0.88          0.719        0.061
  WS02006245           JUNCTION        0.84          0.394        0.461
  WS02006247           JUNCTION        0.85          0.320        0.440
  WS02006249           JUNCTION        0.70          0.388        0.000
  WS02006251           JUNCTION        0.62          1.098        0.412
  WS02006253           JUNCTION        0.46          1.441        1.013
  WS02618401           JUNCTION        4.00          0.000        0.000
  WS8802               JUNCTION        4.00          0.000        4.942
  WSA1649              JUNCTION        4.00          0.000        0.000
  XR-Inflow            JUNCTION        3.03          5.650        0.000
  WS02004114           JUNCTION        3.07          5.756        0.759
  
  
  *********************
  Node Flooding Summary
  *********************
  
  Flooding refers to all water that overflows a node, whether it ponds or not.
  --------------------------------------------------------------------------
                                                             Total   Maximum
                                 Maximum   Time of Max       Flood    Ponded
                        Hours       Rate    Occurrence      Volume     Depth
  Node                 Flooded       MLD   days hr:min    10^6 ltr    Meters
  --------------------------------------------------------------------------
  WS02005193              0.01     10.42      0  02:45       0.000     0.000
  WS02006249              0.01      4.46      0  02:44       0.000     0.000
  XR-Inflow               2.04    190.50      0  03:00       8.435     0.000
  XR-storage              2.60     64.07      0  03:10       3.429     0.000
  CC-storage              0.38     18.92      0  02:30       0.194     0.000
  JK-storage              0.42     19.08      0  02:30       0.221     0.000
  
  
  **********************
  Storage Volume Summary
  **********************
  
  --------------------------------------------------------------------------------------------------
                         Average     Avg  Evap Exfil       Maximum     Max    Time of Max    Maximum
                          Volume    Pcnt  Pcnt  Pcnt        Volume    Pcnt     Occurrence    Outflow
  Storage Unit           1000 m3    Full  Loss  Loss       1000 m3    Full    days hr:min        MLD
  --------------------------------------------------------------------------------------------------
  XR-storage               0.056      89     0     0         0.063     100       0  01:24      32.48
  CC-storage               0.057      36     0     0         0.159     100       0  02:24      34.56
  JK-storage               0.048      36     0     0         0.136     100       0  02:22      34.56
  
  
  ***********************
  Outfall Loading Summary
  ***********************
  
  ---------------------------------------------------------------------------------------------------------------------------------
                         Flow       Avg       Max       Total         Total         Total         Total         Total         Total
                         Freq      Flow      Flow      Volume           COD         NH3-N            TN            TP            SS
  Outfall Node           Pcnt       MLD       MLD    10^6 ltr            kg            kg            kg            kg            kg
  ---------------------------------------------------------------------------------------------------------------------------------
  outfall-2              0.00      0.00      0.00       0.000         0.000         0.000         0.000         0.000         0.000
  outfall-5             55.26     25.81     36.95       0.834       193.904         0.000         0.000         0.000         0.000
  outfall-14             0.00      0.00      0.00       0.000         0.000         0.000         0.000         0.000         0.000
  outfall-16             0.00      0.00      0.00       0.000         0.000         0.000         0.000         0.000         0.000
  12                    99.99    116.43    181.47      13.266      2469.629         0.000         0.000         0.000         0.000
  ---------------------------------------------------------------------------------------------------------------------------------
  System                31.05    142.24    218.39      14.100      2663.532         0.000         0.000         0.000         0.000
  
  
  ********************
  Link Flow Summary
  ********************
  
  -----------------------------------------------------------------------------
                                 Maximum  Time of Max   Maximum    Max/    Max/
                                  |Flow|   Occurrence   |Veloc|    Full    Full
  Link                 Type          MLD  days hr:min     m/sec    Flow   Depth
  -----------------------------------------------------------------------------
  WSL49                CONDUIT    184.64     0  03:03      2.58    2.30    0.74
  WSL1465              CONDUIT     45.96     0  03:22      1.99    0.42    0.86
  WSL1472              CONDUIT    161.63     0  03:00      2.15    1.84    0.73
  WSL1475              CONDUIT    195.98     0  03:02      3.25    2.09    0.50
  WSL1476              CONDUIT     18.52     0  02:54      0.72    0.09    0.61
  WSL1477              CONDUIT     21.61     0  02:45      2.76    0.85    0.37
  WSL1490              CONDUIT     39.60     0  03:46      1.60    0.64    0.66
  WSL1491              CONDUIT     53.19     0  03:43      1.86    0.31    0.72
  WSL1492              CONDUIT     40.34     0  03:21      1.71    0.62    0.80
  WSL1507              CONDUIT      0.17     0  03:02      0.11    0.00    0.27
  WSL1508              CONDUIT     10.29     0  02:52      0.91    0.29    0.32
  WSL1512              CONDUIT     10.33     0  02:53      0.62    0.07    0.30
  WSL1513              CONDUIT     10.41     0  02:54      0.57    0.61    0.45
  WSL1515              CONDUIT    170.46     0  02:58      3.25    1.66    0.53
  WSL1516              CONDUIT     18.94     0  02:53      4.75    0.07    0.22
  WSL1518              CONDUIT     18.37     0  02:52      0.96    0.36    0.46
  WSL1519              CONDUIT     18.38     0  02:53      0.96    0.46    0.45
  WSL1521              CONDUIT     18.43     0  02:53      1.02    0.53    0.44
  WSL1543              CONDUIT     18.37     0  02:52      0.93    0.57    0.46
  WSL1961              CONDUIT     39.15     0  00:01      3.75    0.08    0.35
  WSL1964              CONDUIT     36.61     0  03:35      1.79    0.20    0.49
  WSL2010              CONDUIT     88.75     0  03:01      1.36    1.14    0.95
  WSL2011              CONDUIT     88.93     0  03:02      1.34    0.57    0.98
  WSL2012              CONDUIT     89.18     0  03:03      1.32    1.36    1.00
  WSL2013              CONDUIT     93.95     0  03:01      1.39    2.33    0.98
  WSL2014              CONDUIT    107.24     0  03:01      1.63    1.71    0.93
  WSL2015              CONDUIT    107.33     0  03:00      1.71    1.44    0.89
  WSL2016              CONDUIT    115.71     0  03:00      1.91    1.33    0.85
  WSL2017              CONDUIT    116.22     0  03:00      2.07    1.41    0.80
  WSL2018              CONDUIT    126.79     0  02:59      2.61    0.76    0.71
  WSL2019              CONDUIT    130.13     0  02:58      2.57    0.77    0.78
  WSL2028              CONDUIT     88.52     0  03:02      1.36    0.95    0.95
  WSL2029              CONDUIT    117.00     0  03:03      2.32    1.48    0.73
  WSL2038              CONDUIT     10.78     0  02:46      0.80    0.54    1.00
  WSL2039              CONDUIT     11.94     0  02:45      1.16    0.61    1.00
  WSL2041              CONDUIT     11.57     0  02:45      0.89    0.57    1.00
  WSL2294              CONDUIT     78.62     0  03:01      1.81    2.64    1.00
  WSL2295              CONDUIT     78.69     0  03:01      1.90    3.54    0.95
  WSL2296              CONDUIT     87.72     0  02:58      2.29    0.49    0.84
  WSL2297              CONDUIT     87.90     0  03:01      1.47    1.68    0.93
  WSL2298              CONDUIT     87.67     0  02:58      2.67    4.04    0.79
  WSL2301              CONDUIT     88.13     0  03:02      1.45    0.81    0.93
  WSL2302              CONDUIT     88.38     0  03:02      1.40    1.08    0.94
  WSL2441              CONDUIT     78.54     0  03:01      1.81    2.01    1.00
  WSL2442              CONDUIT     60.90     0  02:50      1.83    1.56    1.00
  WSL2443              CONDUIT     61.13     0  02:50      1.84    0.95    1.00
  WSL2444              CONDUIT     61.01     0  02:50      1.83    0.97    1.00
  WSL2446              CONDUIT     55.79     0  03:13      1.81    0.96    1.00
  WSL2447              CONDUIT     55.67     0  03:13      1.68    2.86    1.00
  WSL2448              CONDUIT     55.55     0  03:13      1.67    1.56    1.00
  WSL2449              CONDUIT     35.21     0  03:39      1.10    1.23    1.00
  WSL2450              CONDUIT     34.55     0  03:38      1.11    0.72    1.00
  WSL2451              CONDUIT     33.89     0  03:38      1.09    2.21    1.00
  WSL2452              CONDUIT     34.26     0  02:43      1.20    0.65    1.00
  WSL2454              CONDUIT     36.50     0  02:43      1.39    0.85    1.00
  WSL2478              CONDUIT     38.08     0  02:43      1.37    1.34    1.00
  WSL2479              CONDUIT     32.94     0  02:43      1.21    0.63    1.00
  WSL2480              CONDUIT     47.84     0  02:50      1.44    2.21    1.00
  WSL2482              CONDUIT     47.67     0  02:50      1.43    1.24    1.00
  WSL2484              CONDUIT     44.40     0  02:50      1.35    0.63    1.00
  WSL2493              CONDUIT     61.02     0  02:50      1.40    1.03    1.00
  WSL2867              CONDUIT    150.83     0  03:02      4.35    0.31    0.42
  WSL2868              CONDUIT    140.56     0  02:58      2.66    0.27    0.59
  WSL348               CONDUIT     63.24     0  02:44      1.88    0.58    1.00
  WSL175               CONDUIT     63.66     0  02:44      2.38    2.14    1.00
  WSL1467              CONDUIT    163.87     0  02:59      2.05    0.87    0.77
  WSL1473              CONDUIT    162.65     0  03:00      2.34    0.67    0.71
  XRpipe               CONDUIT     64.20     0  02:44      8.80    0.16    1.00
  8                    CONDUIT     36.95     0  03:00      6.93    0.49    0.49
  19                   CONDUIT      0.00     0  00:00      0.00    0.00    0.00
  17                   CONDUIT      0.00     0  00:00      0.00    0.00    0.00
  4                    CONDUIT      0.00     0  00:00      0.00    0.00    0.00
  2                    CONDUIT    181.47     0  03:00      4.35    0.66    0.59
  XR-Pump-1            PUMP         8.12     0  00:01              1.00
  XR-Pump-3            PUMP         8.12     0  00:01              1.00
  XR-Pump-2            PUMP         8.12     0  00:01              1.00
  XR-Pump-4            PUMP         8.12     0  00:01              1.00
  CC-Pump-1            PUMP        17.28     0  02:50              1.00
  CC-Pump-2            PUMP        17.28     0  01:40              1.00
  JK-Pump-1            PUMP        17.28     0  02:50              1.00
  JK-Pump-2            PUMP        17.28     0  01:40              1.00
  
  
  ***************************
  Flow Classification Summary
  ***************************
  
  -------------------------------------------------------------------------------------
                      Adjusted    ---------- Fraction of Time in Flow Class ---------- 
                       /Actual         Up    Down  Sub   Sup   Up    Down  Norm  Inlet 
  Conduit               Length    Dry  Dry   Dry   Crit  Crit  Crit  Crit  Ltd   Ctrl  
  -------------------------------------------------------------------------------------
  WSL49                   1.00   0.00  0.00  0.00  1.00  0.00  0.00  0.00  0.00  0.00
  WSL1465                 1.00   0.00  0.00  0.00  1.00  0.00  0.00  0.00  0.07  0.00
  WSL1472                 1.00   0.00  0.00  0.00  1.00  0.00  0.00  0.00  0.00  0.00
  WSL1475                 1.00   0.00  0.00  0.00  0.13  0.87  0.00  0.00  0.01  0.00
  WSL1476                 1.00   0.00  0.00  0.00  1.00  0.00  0.00  0.00  0.99  0.00
  WSL1477                 1.00   0.00  0.00  0.00  0.00  1.00  0.00  0.00  0.37  0.00
  WSL1490                 1.00   0.00  0.00  0.00  1.00  0.00  0.00  0.00  0.01  0.00
  WSL1491                 1.00   0.00  0.00  0.00  1.00  0.00  0.00  0.00  0.08  0.00
  WSL1492                 1.00   0.00  0.00  0.00  1.00  0.00  0.00  0.00  0.01  0.00
  WSL1507                 1.00   0.00  0.00  0.00  1.00  0.00  0.00  0.00  0.44  0.00
  WSL1508                 1.00   0.00  0.00  0.00  1.00  0.00  0.00  0.00  0.00  0.00
  WSL1512                 1.00   0.00  0.00  0.00  1.00  0.00  0.00  0.00  0.82  0.00
  WSL1513                 1.00   0.00  0.00  0.00  1.00  0.00  0.00  0.00  0.00  0.00
  WSL1515                 1.00   0.00  0.00  0.00  0.17  0.83  0.00  0.00  0.04  0.00
  WSL1516                 1.00   0.00  0.00  0.00  0.00  1.00  0.00  0.00  0.97  0.00
  WSL1518                 1.00   0.00  0.00  0.00  1.00  0.00  0.00  0.00  0.40  0.00
  WSL1519                 1.00   0.00  0.00  0.00  1.00  0.00  0.00  0.00  0.32  0.00
  WSL1521                 1.00   0.00  0.00  0.00  1.00  0.00  0.00  0.00  0.02  0.00
  WSL1543                 1.00   0.00  0.00  0.00  1.00  0.00  0.00  0.00  0.02  0.00
  WSL1961                 1.00   0.00  0.00  0.00  0.25  0.75  0.00  0.00  0.99  0.00
  WSL1964                 1.00   0.00  0.00  0.00  1.00  0.00  0.00  0.00  0.10  0.00
  WSL2010                 1.00   0.00  0.00  0.00  1.00  0.00  0.00  0.00  0.01  0.00
  WSL2011                 1.00   0.00  0.00  0.00  1.00  0.00  0.00  0.00  0.18  0.00
  WSL2012                 1.00   0.00  0.00  0.00  1.00  0.00  0.00  0.00  0.00  0.00
  WSL2013                 1.00   0.00  0.00  0.00  1.00  0.00  0.00  0.00  0.00  0.00
  WSL2014                 1.00   0.00  0.00  0.00  1.00  0.00  0.00  0.00  0.00  0.00
  WSL2015                 1.00   0.00  0.00  0.00  1.00  0.00  0.00  0.00  0.02  0.00
  WSL2016                 1.00   0.00  0.00  0.00  1.00  0.00  0.00  0.00  0.04  0.00
  WSL2017                 1.00   0.00  0.00  0.00  1.00  0.00  0.00  0.00  0.04  0.00
  WSL2018                 1.00   0.00  0.00  0.00  0.17  0.83  0.00  0.00  0.08  0.00
  WSL2019                 1.00   0.00  0.00  0.00  0.77  0.23  0.00  0.00  0.11  0.00
  WSL2028                 1.00   0.00  0.00  0.00  1.00  0.00  0.00  0.00  0.06  0.00
  WSL2029                 1.00   0.00  0.00  0.00  0.84  0.16  0.00  0.00  0.00  0.00
  WSL2038                 1.00   0.00  0.00  0.00  1.00  0.00  0.00  0.00  0.02  0.00
  WSL2039                 1.00   0.00  0.00  0.00  0.94  0.06  0.00  0.00  0.01  0.00
  WSL2041                 1.00   0.00  0.00  0.00  1.00  0.00  0.00  0.00  0.18  0.00
  WSL2294                 1.00   0.00  0.00  0.00  1.00  0.00  0.00  0.00  0.00  0.00
  WSL2295                 1.00   0.00  0.00  0.00  1.00  0.00  0.00  0.00  0.00  0.00
  WSL2296                 1.00   0.00  0.00  0.00  0.70  0.30  0.00  0.00  0.45  0.00
  WSL2297                 1.00   0.00  0.00  0.00  1.00  0.00  0.00  0.00  0.00  0.00
  WSL2298                 1.00   0.00  0.00  0.00  0.14  0.86  0.00  0.00  0.00  0.00
  WSL2301                 1.00   0.00  0.00  0.00  1.00  0.00  0.00  0.00  0.09  0.00
  WSL2302                 1.00   0.00  0.00  0.00  1.00  0.00  0.00  0.00  0.02  0.00
  WSL2441                 1.00   0.00  0.00  0.00  1.00  0.00  0.00  0.00  0.01  0.00
  WSL2442                 1.00   0.00  0.00  0.00  1.00  0.00  0.00  0.00  0.12  0.00
  WSL2443                 1.00   0.00  0.00  0.00  1.00  0.00  0.00  0.00  0.32  0.00
  WSL2444                 1.00   0.00  0.00  0.00  0.68  0.32  0.00  0.00  0.21  0.00
  WSL2446                 1.00   0.00  0.00  0.00  0.74  0.26  0.00  0.00  0.19  0.00
  WSL2447                 1.00   0.00  0.00  0.00  1.00  0.00  0.00  0.00  0.00  0.00
  WSL2448                 1.00   0.00  0.00  0.00  1.00  0.00  0.00  0.00  0.01  0.00
  WSL2449                 1.00   0.00  0.00  0.00  1.00  0.00  0.00  0.00  0.05  0.00
  WSL2450                 1.00   0.00  0.00  0.00  1.00  0.00  0.00  0.00  0.33  0.00
  WSL2451                 1.00   0.00  0.00  0.00  1.00  0.00  0.00  0.00  0.00  0.00
  WSL2452                 1.00   0.00  0.00  0.00  1.00  0.00  0.00  0.00  0.38  0.00
  WSL2454                 1.00   0.00  0.00  0.00  1.00  0.00  0.00  0.00  0.05  0.00
  WSL2478                 1.00   0.00  0.00  0.00  1.00  0.00  0.00  0.00  0.00  0.00
  WSL2479                 1.00   0.00  0.00  0.00  1.00  0.00  0.00  0.00  0.34  0.00
  WSL2480                 1.00   0.00  0.00  0.00  1.00  0.00  0.00  0.00  0.00  0.00
  WSL2482                 1.00   0.00  0.00  0.00  1.00  0.00  0.00  0.00  0.40  0.00
  WSL2484                 1.00   0.00  0.00  0.00  0.99  0.01  0.00  0.00  0.47  0.00
  WSL2493                 1.00   0.00  0.00  0.00  1.00  0.00  0.00  0.00  0.05  0.00
  WSL2867                 1.00   0.00  0.00  0.00  0.00  1.00  0.00  0.00  0.20  0.00
  WSL2868                 1.00   0.00  0.00  0.00  0.78  0.22  0.00  0.00  0.63  0.00
  WSL348                  1.00   0.00  0.00  0.00  0.98  0.02  0.00  0.00  0.01  0.00
  WSL175                  1.00   0.00  0.00  0.00  0.94  0.06  0.00  0.00  0.01  0.00
  WSL1467                 1.00   0.00  0.00  0.00  1.00  0.00  0.00  0.00  0.13  0.00
  WSL1473                 1.00   0.00  0.00  0.00  1.00  0.00  0.00  0.00  0.04  0.00
  XRpipe                  1.00   0.00  0.00  0.00  0.95  0.05  0.00  0.00  0.04  0.00
  8                       1.00   0.45  0.00  0.00  0.00  0.55  0.00  0.00  0.09  0.00
  19                      1.00   1.00  0.00  0.00  0.00  0.00  0.00  0.00  0.00  0.00
  17                      1.00   1.00  0.00  0.00  0.00  0.00  0.00  0.00  0.00  0.00
  4                       1.00   1.00  0.00  0.00  0.00  0.00  0.00  0.00  0.00  0.00
  2                       1.00   0.00  0.00  0.00  0.00  1.00  0.00  0.00  0.30  0.00
  
  
  *************************
  Conduit Surcharge Summary
  *************************
  
  ----------------------------------------------------------------------------
                                                           Hours        Hours 
                         --------- Hours Full --------   Above Full   Capacity
  Conduit                Both Ends  Upstream  Dnstream   Normal Flow   Limited
  ----------------------------------------------------------------------------
  WSL49                       0.01      0.01      0.01      2.03         0.01
  WSL1472                     0.01      0.01      0.01      1.36         0.01
  WSL1475                     0.01      0.01      0.01      1.51         0.01
  WSL1476                     0.01      0.01      0.63      0.01         0.01
  WSL1515                     0.01      0.01      0.01      0.56         0.01
  WSL2010                     0.01      0.01      0.01      0.62         0.01
  WSL2011                     0.01      0.01      0.13      0.01         0.01
  WSL2012                     0.04      0.13      0.04      0.99         0.04
  WSL2013                     0.01      0.04      0.01      1.29         0.01
  WSL2014                     0.01      0.01      0.01      1.16         0.01
  WSL2015                     0.01      0.01      0.01      1.03         0.01
  WSL2016                     0.01      0.01      0.01      0.87         0.01
  WSL2017                     0.01      0.01      0.01      0.96         0.01
  WSL2029                     0.01      0.01      0.01      1.03         0.01
  WSL2038                     0.51      0.51      0.53      0.01         0.01
  WSL2039                     0.56      0.57      0.59      0.01         0.01
  WSL2041                     0.53      0.53      0.57      0.01         0.01
  WSL2294                     0.28      0.71      0.28      1.60         0.28
  WSL2295                     0.01      0.28      0.01      2.02         0.01
  WSL2296                     0.01      0.01      0.59      0.01         0.01
  WSL2297                     0.01      0.01      0.01      1.14         0.01
  WSL2298                     0.01      0.01      0.01      2.32         0.01
  WSL2302                     0.01      0.01      0.01      0.49         0.01
  WSL2441                     0.71      0.90      0.71      1.21         0.71
  WSL2442                     1.05      1.06      1.05      1.11         1.05
  WSL2443                     0.99      0.99      1.06      0.01         0.01
  WSL2444                     0.94      0.94      0.99      0.01         0.01
  WSL2446                     0.89      0.89      0.94      0.01         0.01
  WSL2447                     0.89      0.92      0.89      1.78         0.89
  WSL2448                     0.92      0.93      0.92      1.10         0.92
  WSL2449                     0.93      0.93      0.93      0.26         0.20
  WSL2450                     0.90      0.90      0.93      0.01         0.01
  WSL2451                     0.90      0.92      0.90      1.53         0.90
  WSL2452                     0.88      0.88      0.92      0.01         0.01
  WSL2454                     0.84      0.84      0.88      0.01         0.01
  WSL2478                     0.84      0.85      0.84      0.28         0.13
  WSL2479                     0.66      0.66      0.85      0.01         0.01
  WSL2480                     0.66      0.70      0.66      1.03         0.66
  WSL2482                     0.62      0.62      0.70      0.51         0.50
  WSL2484                     0.46      0.46      0.62      0.01         0.01
  WSL2493                     0.88      0.88      0.90      0.27         0.28
  WSL348                      3.03      3.03      3.07      0.01         0.01
  WSL175                      3.06      3.07      3.07      2.63         2.71
  XRpipe                      3.07      3.07      3.45      0.01         0.01
  
  
  ***************
  Pumping Summary
  ***************
  
  ---------------------------------------------------------------------------------------------------------
                                                  Min       Avg       Max     Total     Power    % Time Off
                        Percent   Number of      Flow      Flow      Flow    Volume     Usage    Pump Curve
  Pump                 Utilized   Start-Ups       MLD       MLD       MLD  10^6 ltr     Kw-hr    Low   High
  ---------------------------------------------------------------------------------------------------------
  XR-Pump-1               95.79           4      0.00      6.85      8.12     1.121      7.02    0.0    0.0
  XR-Pump-3               87.45           4      0.00      6.78      8.12     1.008      5.92    0.0    0.0
  XR-Pump-2               91.62           4      0.00      6.83      8.12     1.065      6.85    0.0    0.0
  XR-Pump-4               95.79           4      0.00      6.85      8.12     1.121      7.02    0.0    0.0
  CC-Pump-1               25.00           1      0.00     14.64     17.28     0.553      4.59    0.0    0.0
  CC-Pump-2               62.47           3      0.00     13.51     17.28     1.082      9.58    0.0    0.0
  JK-Pump-1               25.00           1      0.00     14.67     17.28     0.554      4.95    0.0    0.0
  JK-Pump-2               58.33           3      0.00     13.59     17.28     1.025      9.05    0.0    0.0
  
  
  ***************************
  Link Pollutant Load Summary
  ***************************
  
  ------------------------------------------------------------------------------------------
                                 COD         NH3-N            TN            TP            SS
  Link                            kg            kg            kg            kg            kg
  ------------------------------------------------------------------------------------------
  WSL49                     2439.571         0.000         0.000         0.000         0.000
  WSL1465                    689.370         0.000         0.000         0.000         0.000
  WSL1472                   2184.576         0.000         0.000         0.000         0.000
  WSL1475                   2457.618         0.000         0.000         0.000         0.000
  WSL1476                    257.015         0.000         0.000         0.000         0.000
  WSL1477                    255.018         0.000         0.000         0.000         0.000
  WSL1490                    679.176         0.000         0.000         0.000         0.000
  WSL1491                    682.294         0.000         0.000         0.000         0.000
  WSL1492                    686.987         0.000         0.000         0.000         0.000
  WSL1507                      1.382         0.000         0.000         0.000         0.000
  WSL1508                    161.646         0.000         0.000         0.000         0.000
  WSL1512                    161.545         0.000         0.000         0.000         0.000
  WSL1513                    162.596         0.000         0.000         0.000         0.000
  WSL1515                   1493.066         0.000         0.000         0.000         0.000
  WSL1516                    255.623         0.000         0.000         0.000         0.000
  WSL1518                    253.982         0.000         0.000         0.000         0.000
  WSL1519                    253.875         0.000         0.000         0.000         0.000
  WSL1521                    254.524         0.000         0.000         0.000         0.000
  WSL1543                    253.699         0.000         0.000         0.000         0.000
  WSL1961                    668.733         0.000         0.000         0.000         0.000
  WSL1964                    676.225         0.000         0.000         0.000         0.000
  WSL2010                    922.701         0.000         0.000         0.000         0.000
  WSL2011                    926.950         0.000         0.000         0.000         0.000
  WSL2012                    931.736         0.000         0.000         0.000         0.000
  WSL2013                    995.548         0.000         0.000         0.000         0.000
  WSL2014                   1249.486         0.000         0.000         0.000         0.000
  WSL2015                   1249.313         0.000         0.000         0.000         0.000
  WSL2016                   1377.889         0.000         0.000         0.000         0.000
  WSL2017                   1379.162         0.000         0.000         0.000         0.000
  WSL2018                   1487.506         0.000         0.000         0.000         0.000
  WSL2019                   1488.624         0.000         0.000         0.000         0.000
  WSL2028                    918.670         0.000         0.000         0.000         0.000
  WSL2029                   1383.451         0.000         0.000         0.000         0.000
  WSL2038                    107.945         0.000         0.000         0.000         0.000
  WSL2039                    114.756         0.000         0.000         0.000         0.000
  WSL2041                    112.037         0.000         0.000         0.000         0.000
  WSL2294                    903.050         0.000         0.000         0.000         0.000
  WSL2295                    903.055         0.000         0.000         0.000         0.000
  WSL2296                    911.297         0.000         0.000         0.000         0.000
  WSL2297                    914.584         0.000         0.000         0.000         0.000
  WSL2298                    905.994         0.000         0.000         0.000         0.000
  WSL2301                    914.711         0.000         0.000         0.000         0.000
  WSL2302                    919.065         0.000         0.000         0.000         0.000
  WSL2441                    902.933         0.000         0.000         0.000         0.000
  WSL2442                    553.471         0.000         0.000         0.000         0.000
  WSL2443                    553.373         0.000         0.000         0.000         0.000
  WSL2444                    550.681         0.000         0.000         0.000         0.000
  WSL2446                    549.228         0.000         0.000         0.000         0.000
  WSL2447                    545.961         0.000         0.000         0.000         0.000
  WSL2448                    542.149         0.000         0.000         0.000         0.000
  WSL2449                    309.218         0.000         0.000         0.000         0.000
  WSL2450                    307.140         0.000         0.000         0.000         0.000
  WSL2451                    306.572         0.000         0.000         0.000         0.000
  WSL2452                    305.463         0.000         0.000         0.000         0.000
  WSL2454                    301.828         0.000         0.000         0.000         0.000
  WSL2478                    300.211         0.000         0.000         0.000         0.000
  WSL2479                    219.298         0.000         0.000         0.000         0.000
  WSL2480                    410.205         0.000         0.000         0.000         0.000
  WSL2482                    407.034         0.000         0.000         0.000         0.000
  WSL2484                    356.281         0.000         0.000         0.000         0.000
  WSL2493                    555.598         0.000         0.000         0.000         0.000
  WSL2867                   1493.171         0.000         0.000         0.000         0.000
  WSL2868                   1497.618         0.000         0.000         0.000         0.000
  WSL348                    1344.959         0.000         0.000         0.000         0.000
  WSL175                    1351.056         0.000         0.000         0.000         0.000
  WSL1467                   2183.500         0.000         0.000         0.000         0.000
  WSL1473                   2185.712         0.000         0.000         0.000         0.000
  XRpipe                    1363.239         0.000         0.000         0.000         0.000
  8                          193.904         0.000         0.000         0.000         0.000
  19                           0.000         0.000         0.000         0.000         0.000
  17                           0.000         0.000         0.000         0.000         0.000
  4                            0.000         0.000         0.000         0.000         0.000
  2                         2469.629         0.000         0.000         0.000         0.000
  XR-Pump-1                  170.248         0.000         0.000         0.000         0.000
  XR-Pump-3                  156.569         0.000         0.000         0.000         0.000
  XR-Pump-2                  160.835         0.000         0.000         0.000         0.000
  XR-Pump-4                  170.248         0.000         0.000         0.000         0.000
  CC-Pump-1                   92.070         0.000         0.000         0.000         0.000
  CC-Pump-2                  148.742         0.000         0.000         0.000         0.000
  JK-Pump-1                   90.271         0.000         0.000         0.000         0.000
  JK-Pump-2                  140.101         0.000         0.000         0.000         0.000
  

  Analysis begun on:  Wed Mar 20 15:01:52 2019
  Analysis ended on:  Wed Mar 20 15:01:53 2019
  Total elapsed time: 00:00:01