
  EPA STORM WATER MANAGEMENT MODEL - VERSION 5.1 (Build 5.2.0.dev1)
  --------------------------------------------------------------

  
  *********************************************************
  NOTE: The summary statistics displayed in this report are
  based on results found at every computational time step,  
  not just on results from each reporting time step.
  *********************************************************
  
  ****************
  Analysis Options
  ****************
  Flow Units ............... MLD
  Process Models:
    Rainfall/Runoff ........ YES
    RDII ................... NO
    Snowmelt ............... NO
    Groundwater ............ NO
    Flow Routing ........... YES
    Ponding Allowed ........ NO
    Water Quality .......... YES
  Infiltration Method ...... GREEN_AMPT
  Flow Routing Method ...... DYNWAVE
  Starting Date ............ 08/28/2015 08:00:00
  Ending Date .............. 08/28/2015 12:00:00
  Antecedent Dry Days ...... 4.0
  Report Time Step ......... 00:01:00
  Wet Time Step ............ 00:01:00
  Dry Time Step ............ 00:01:00
  Routing Time Step ........ 5.00 sec
  Variable Time Step ....... YES
  Maximum Trials ........... 8
  Number of Threads ........ 1
  Head Tolerance ........... 0.001500 m
  
  
  **************************        Volume         Depth
  Runoff Quantity Continuity     hectare-m            mm
  **************************     ---------       -------
  Total Precipitation ......         4.479        15.880
  Evaporation Loss .........         0.000         0.000
  Infiltration Loss ........         2.006         7.113
  Surface Runoff ...........         1.059         3.754
  Final Storage ............         1.417         5.022
  Continuity Error (%) .....        -0.056
  
  
  **************************           COD         NH3-N            TN            TP            SS
  Runoff Quality Continuity             kg            kg            kg            kg            kg
  **************************    ----------    ----------    ----------    ----------    ----------
  Initial Buildup ..........     13074.240         0.000         0.000         0.000         0.000
  Surface Buildup ..........       110.459         0.000         0.000         0.000         0.000
  Wet Deposition ...........         0.000         0.000         0.000         0.000         0.000
  Sweeping Removal .........         0.000         0.000         0.000         0.000         0.000
  Infiltration Loss ........       130.382         0.000         0.000         0.000         0.000
  BMP Removal ..............         0.000         0.000         0.000         0.000         0.000
  Surface Runoff ...........      1526.024         0.000         0.000         0.000         0.000
  Remaining Buildup ........     11526.269         0.000         0.000         0.000         0.000
  Continuity Error (%) .....         0.015         0.000         0.000         0.000         0.000
  
  
  **************************        Volume        Volume
  Flow Routing Continuity        hectare-m      10^6 ltr
  **************************     ---------     ---------
  Dry Weather Inflow .......         0.000         0.000
  Wet Weather Inflow .......         1.056        10.556
  Groundwater Inflow .......         0.000         0.000
  RDII Inflow ..............         0.000         0.000
  External Inflow ..........         0.561         5.611
  External Outflow .........         1.021        10.214
  Flooding Loss ............         0.548         5.478
  Evaporation Loss .........         0.000         0.000
  Exfiltration Loss ........         0.000         0.000
  Initial Stored Volume ....         0.000         0.000
  Final Stored Volume ......         0.090         0.901
  Continuity Error (%) .....        -2.633
  
  
  **************************           COD         NH3-N            TN            TP            SS
  Quality Routing Continuity            kg            kg            kg            kg            kg
  **************************    ----------    ----------    ----------    ----------    ----------
  Dry Weather Inflow .......         0.000         0.000         0.000         0.000         0.000
  Wet Weather Inflow .......      1522.296         0.000         0.000         0.000         0.000
  Groundwater Inflow .......         0.000         0.000         0.000         0.000         0.000
  RDII Inflow ..............         0.000         0.000         0.000         0.000         0.000
  External Inflow ..........       937.015         0.000         0.000         0.000         0.000
  External Outflow .........      1456.461         0.000         0.000         0.000         0.000
  Flooding Loss ............       789.839         0.000         0.000         0.000         0.000
  Exfiltration Loss ........         0.000         0.000         0.000         0.000         0.000
  Mass Reacted .............         0.000         0.000         0.000         0.000         0.000
  Initial Stored Mass ......         0.000         0.000         0.000         0.000         0.000
  Final Stored Mass ........       112.793         0.000         0.000         0.000         0.000
  Continuity Error (%) .....         4.075         0.000         0.000         0.000         0.000
  
  
  *************************
  Highest Continuity Errors
  *************************
  Node WS02003099 (1.28%)
  Node WS02003094 (1.02%)
  
  
  ***************************
  Time-Step Critical Elements
  ***************************
  Link WSL2448 (42.82%)
  Link 8 (22.55%)
  Link WSL1477 (19.72%)
  Link WSL2867 (2.80%)
  Link XRpipe (1.33%)
  
  
  ********************************
  Highest Flow Instability Indexes
  ********************************
  Link WSL1477 (72)
  Link WSL1516 (59)
  Link WSL1515 (21)
  Link WSL2867 (16)
  Link WSL1475 (13)
  
  
  *************************
  Routing Time Step Summary
  *************************
  Minimum Time Step           :     0.50 sec
  Average Time Step           :     2.25 sec
  Maximum Time Step           :     5.00 sec
  Percent in Steady State     :     0.00
  Average Iterations per Step :     3.23
  Percent Not Converging      :    14.70
  
  
  ***************************
  Subcatchment Runoff Summary
  ***************************
  
  --------------------------------------------------------------------------------------------------------
                            Total      Total      Total      Total      Total       Total     Peak  Runoff
                           Precip      Runon       Evap      Infil     Runoff      Runoff   Runoff   Coeff
  Subcatchment                 mm         mm         mm         mm         mm    10^6 ltr      MLD
  --------------------------------------------------------------------------------------------------------
  1                         15.88      16.26       0.00       8.77      13.86        0.17     3.72   0.431
  2                         15.88       0.00       0.00       7.17       4.94        0.17     4.36   0.311
  3                         15.88       0.00       0.00       7.20       4.70        0.24     6.14   0.296
  4                         15.88       0.00       0.00       7.15       5.08        0.14     3.58   0.320
  5                         15.88      12.20       0.00       8.59      11.38        0.19     4.52   0.405
  6                         15.88       0.00       0.00       7.20       4.72        0.23     5.98   0.297
  7                         15.88       0.00       0.00       6.83       4.05        6.47   124.71   0.255
  8                         15.88       0.00       0.00       7.19       4.80        0.20     5.27   0.302
  9                         15.88       4.73       0.00       7.84       6.76        0.26     6.23   0.328
  17                        15.88       0.00       0.00       7.18       4.89        0.18     4.68   0.308
  18                        15.88       0.00       0.00       7.19       4.79        0.21     5.37   0.302
  28                        15.88      15.03       0.00       8.83      11.66        0.31     6.71   0.377
  29                        15.88       6.34       0.00       7.87       7.70        0.19     4.43   0.347
  30                        15.88      18.69       0.00       9.06      16.50        0.15     3.52   0.477
  31                        15.88       0.00       0.00       7.17       4.91        0.17     4.55   0.309
  33                        15.88       0.00       0.00       7.03       5.86        0.05     1.43   0.369
  34                        15.88      10.56       0.00       8.46      10.21        0.21     4.99   0.386
  35                        15.88       0.00       0.00       7.16       5.00        0.15     3.99   0.315
  36                        15.88       9.64       0.00       8.46       8.23        0.49    11.00   0.322
  39                        15.88       0.00       0.00       7.17       4.93        0.17     4.40   0.311
  40                        15.88       2.62       0.00       7.56       5.87        0.23     5.75   0.317
  41                        15.88       0.00       0.00       7.12       5.29        0.10     2.76   0.333
  42                        15.88       0.00       0.00       7.14       5.18        0.12     3.16   0.326
  43                        15.88       0.00       0.00       6.90       6.58        0.02     0.70   0.414
  44                        15.88     136.98       0.00      13.72     113.49        0.42     8.31   0.742
  45                        15.88       0.00       0.00       7.05       5.73        0.06     1.64   0.361
  46                        15.88       8.11       0.00       8.16       8.86        0.19     4.56   0.369
  47                        15.88       0.00       0.00       7.06       5.68        0.06     1.75   0.358
  48                        15.88       3.98       0.00       7.64       7.28        0.11     2.95   0.366
  55                        15.88       5.95       0.00       7.76       9.06        0.08     1.94   0.415
  56                        15.88       8.93       0.00       8.24       9.24        0.20     4.70   0.372
  57                        15.88       0.00       0.00       7.20       4.71        0.24     6.04   0.297
  59                        15.88       0.00       0.00       7.03       5.89        0.05     1.39   0.371
  60                        15.88      12.94       0.00       8.36      14.13        0.07     1.81   0.490
  61                        15.88       0.00       0.00       7.27       4.03        0.73    17.45   0.254
  62                        15.88       0.00       0.00       7.27       4.00        0.76    18.25   0.252
  64                        15.88       0.00       0.00       7.07       5.62        0.07     1.86   0.354
  
  
  ****************************
  Subcatchment Washoff Summary
  ****************************
  
  ------------------------------------------------------------------------------------------
                                 COD         NH3-N            TN            TP            SS
  Subcatchment                    kg            kg            kg            kg            kg
  ------------------------------------------------------------------------------------------
  1                           22.769         0.000         0.000         0.000         0.000
  2                            0.000         0.000         0.000         0.000         0.000
  3                            0.000         0.000         0.000         0.000         0.000
  4                           20.556         0.000         0.000         0.000         0.000
  5                           57.101         0.000         0.000         0.000         0.000
  6                           33.286         0.000         0.000         0.000         0.000
  7                          837.620         0.000         0.000         0.000         0.000
  8                           29.543         0.000         0.000         0.000         0.000
  9                           54.606         0.000         0.000         0.000         0.000
  17                          26.398         0.000         0.000         0.000         0.000
  18                          30.086         0.000         0.000         0.000         0.000
  28                         109.922         0.000         0.000         0.000         0.000
  29                          51.280         0.000         0.000         0.000         0.000
  30                          48.025         0.000         0.000         0.000         0.000
  31                          25.724         0.000         0.000         0.000         0.000
  33                           8.721         0.000         0.000         0.000         0.000
  34                          60.394         0.000         0.000         0.000         0.000
  35                          22.742         0.000         0.000         0.000         0.000
  36                         133.357         0.000         0.000         0.000         0.000
  39                          24.930         0.000         0.000         0.000         0.000
  40                          42.817         0.000         0.000         0.000         0.000
  41                          16.105         0.000         0.000         0.000         0.000
  42                          18.243         0.000         0.000         0.000         0.000
  43                           4.475         0.000         0.000         0.000         0.000
  44                         121.548         0.000         0.000         0.000         0.000
  45                           9.915         0.000         0.000         0.000         0.000
  46                          52.425         0.000         0.000         0.000         0.000
  47                          10.497         0.000         0.000         0.000         0.000
  48                          25.706         0.000         0.000         0.000         0.000
  55                          19.754         0.000         0.000         0.000         0.000
  56                          57.161         0.000         0.000         0.000         0.000
  57                          33.601         0.000         0.000         0.000         0.000
  59                           8.492         0.000         0.000         0.000         0.000
  60                          23.153         0.000         0.000         0.000         0.000
  61                          90.939         0.000         0.000         0.000         0.000
  62                          94.777         0.000         0.000         0.000         0.000
  64                          11.140         0.000         0.000         0.000         0.000
  ------------------------------------------------------------------------------------------
  System                    2237.808         0.000         0.000         0.000         0.000
  
  
  ******************
  Node Depth Summary
  ******************
  
  ---------------------------------------------------------------------------------
                                 Average  Maximum  Maximum  Time of Max    Reported
                                   Depth    Depth      HGL   Occurrence   Max Depth
  Node                 Type       Meters   Meters   Meters  days hr:min      Meters
  ---------------------------------------------------------------------------------
  WS01000070           JUNCTION     0.00     0.00     0.00     0  00:00        0.00
  WS01000323           JUNCTION     0.00     0.00     0.00     0  00:00        0.00
  WS01000533           JUNCTION     0.00     0.00     6.86     0  00:00        0.00
  WS01005172           JUNCTION     0.00     0.00     0.00     0  00:00        0.00
  WS01005181           JUNCTION     0.00     0.00     0.00     0  00:00        0.00
  WS01009841           JUNCTION     0.00     0.00     0.00     0  00:00        0.00
  WS02000078           JUNCTION     0.00     0.00     0.00     0  00:00        0.00
  WS02000112           JUNCTION     0.00     0.00     0.00     0  00:00        0.00
  WS02000136           JUNCTION     0.00     0.00     0.00     0  00:00        0.00
  WS02001211           JUNCTION     0.43     0.56     5.40     0  03:12        0.55
  WS02001212           JUNCTION     0.39     0.57     5.37     0  03:11        0.56
  WS02001213           JUNCTION     0.48     0.67     5.37     0  03:11        0.67
  WS02003059           JUNCTION     0.47     0.72     5.37     0  03:10        0.70
  WS02003060           JUNCTION     0.54     0.80     5.35     0  03:10        0.80
  WS02003066           JUNCTION     0.23     0.42     5.72     0  03:09        0.38
  WS02003067           JUNCTION     0.40     0.70     6.02     0  03:09        0.66
  WS02003071           JUNCTION     0.59     0.87     5.27     0  03:08        0.87
  WS02003072           JUNCTION     0.50     0.78     5.15     0  03:17        0.77
  WS02003073           JUNCTION     0.57     0.95     5.19     0  03:07        0.91
  WS02003076           JUNCTION     0.52     0.86     5.09     0  03:16        0.85
  WS02003077           JUNCTION     0.08     0.14     5.15     0  03:08        0.14
  WS02003078           JUNCTION     0.05     0.08     6.98     0  03:02        0.08
  WS02003079           JUNCTION     0.15     0.25     7.16     0  03:05        0.25
  WS02003093           JUNCTION     0.03     0.09     7.43     0  03:01        0.09
  WS02003094           JUNCTION     0.13     0.21     7.43     0  03:01        0.21
  WS02003098           JUNCTION     0.08     0.14     7.31     0  03:02        0.14
  WS02003099           JUNCTION     0.17     0.28     7.32     0  03:03        0.28
  WS02003102           JUNCTION     0.15     0.26     7.29     0  03:03        0.26
  WS02003103           JUNCTION     0.17     0.28     7.25     0  03:03        0.28
  WS02003104           JUNCTION     0.17     0.27     7.23     0  03:04        0.27
  WS02003106           JUNCTION     0.17     0.27     7.20     0  03:04        0.27
  WS02004050           JUNCTION     0.36     0.53     4.75     0  03:09        0.52
  WS02004053           JUNCTION     0.00     0.00     0.00     0  00:00        0.00
  WS02004136           JUNCTION     0.16     0.18     6.91     0  00:20        0.18
  WS02004139           JUNCTION     0.35     0.44     5.40     0  03:13        0.44
  WS02004401           JUNCTION     0.43     0.75     6.75     0  03:04        0.75
  WS02004402           JUNCTION     0.44     0.76     6.72     0  03:05        0.76
  WS02004403           JUNCTION     0.43     0.76     6.69     0  03:04        0.76
  WS02004404           JUNCTION     0.51     0.83     6.68     0  03:04        0.83
  WS02004405           JUNCTION     0.51     0.83     6.67     0  03:04        0.83
  WS02004406           JUNCTION     0.48     0.79     6.62     0  03:04        0.79
  WS02004407           JUNCTION     0.45     0.75     6.55     0  03:04        0.75
  WS02004409           JUNCTION     0.44     0.72     6.49     0  03:04        0.72
  WS02004410           JUNCTION     0.42     0.68     6.40     0  03:04        0.68
  WS02004411           JUNCTION     0.39     0.63     6.31     0  03:04        0.63
  WS02004412           JUNCTION     0.34     0.56     6.20     0  03:07        0.56
  WS02004413           JUNCTION     0.35     0.60     6.07     0  03:09        0.59
  WS02004997           JUNCTION     5.56     6.70     8.31     0  02:57        6.68
  WS02005192           JUNCTION     0.24     2.38    10.25     0  02:59        0.65
  WS02005193           JUNCTION     0.27     3.06    10.88     0  02:59        0.70
  WS02005196           JUNCTION     0.25     2.49    10.34     0  02:59        0.67
  WS02006109           JUNCTION     0.49     0.82     7.44     0  03:01        0.82
  WS02006110           JUNCTION     0.44     0.72     7.32     0  03:01        0.72
  WS02006111           JUNCTION     0.25     0.43     7.01     0  03:01        0.43
  WS02006112           JUNCTION     0.45     0.76     6.88     0  03:05        0.76
  WS02006113           JUNCTION     0.37     0.60     7.19     0  03:01        0.60
  WS02006115           JUNCTION     0.41     0.72     6.82     0  03:04        0.72
  WS02006116           JUNCTION     0.44     0.75     6.79     0  03:04        0.75
  WS02006183           JUNCTION     0.00     0.00     0.00     0  00:00        0.00
  WS02006228           JUNCTION     0.50     0.88     7.53     0  03:00        0.88
  WS02006229           JUNCTION     0.48     0.89     7.58     0  03:00        0.89
  WS02006230           JUNCTION     0.50     0.98     7.73     0  03:00        0.98
  WS02006231           JUNCTION     0.44     0.99     7.89     0  03:05        0.97
  WS02006232           JUNCTION     0.43     1.03     8.06     0  03:05        0.96
  WS02006234           JUNCTION     0.42     1.09     8.25     0  03:05        0.96
  WS02006235           JUNCTION     0.47     1.20     8.37     0  03:05        1.03
  WS02006238           JUNCTION     0.48     1.21     8.39     0  03:05        1.05
  WS02006239           JUNCTION     0.48     1.20     8.41     0  03:05        1.04
  WS02006242           JUNCTION     0.46     1.13     8.43     0  03:05        0.99
  WS02006240           JUNCTION     0.43     1.11     8.40     0  03:05        0.98
  WS02006243           JUNCTION     0.39     1.07     8.49     0  03:05        0.89
  WS02006245           JUNCTION     0.37     1.01     8.50     0  03:05        0.84
  WS02006247           JUNCTION     0.39     0.99     8.50     0  02:58        0.83
  WS02006248           JUNCTION     0.33     0.78     8.37     0  02:59        0.76
  WS02006249           JUNCTION     0.36     1.09     8.69     0  02:59        0.79
  WS02006251           JUNCTION     0.35     1.98     9.65     0  02:59        0.80
  WS02006253           JUNCTION     0.27     2.38    10.18     0  02:59        0.72
  WS02618401           JUNCTION     0.00     0.00     0.00     0  00:00        0.00
  WS8802               JUNCTION     0.00     0.00     4.38     0  00:00        0.00
  WSA1649              JUNCTION     0.00     0.00     0.00     0  00:00        0.00
  WSF200               JUNCTION     0.23     0.41     5.51     0  03:10        0.39
  XR-Inflow            JUNCTION     5.42     6.55     8.36     0  02:24        6.55
  WS02004114           JUNCTION     5.53     6.66     8.26     0  02:59        6.65
  outfall-2            OUTFALL      0.00     0.00     7.00     0  00:00        0.00
  outfall-5            OUTFALL      0.03     0.17     7.84     0  02:59        0.16
  outfall-14           OUTFALL      0.00     0.00     7.66     0  00:00        0.00
  outfall-16           OUTFALL      0.00     0.00     8.39     0  00:00        0.00
  12                   OUTFALL      0.36     0.52     0.52     0  03:09        0.52
  XR-storage           STORAGE      6.55     7.72     8.22     0  00:14        7.72
  CC-storage           STORAGE      1.07     4.85     8.03     0  02:35        4.85
  JK-storage           STORAGE      1.25     4.80     7.80     0  02:33        4.80
  
  
  *******************
  Node Inflow Summary
  *******************
  
  -------------------------------------------------------------------------------------------------
                                  Maximum  Maximum                  Lateral       Total        Flow
                                  Lateral    Total  Time of Max      Inflow      Inflow     Balance
                                   Inflow   Inflow   Occurrence      Volume      Volume       Error
  Node                 Type           MLD      MLD  days hr:min    10^6 ltr    10^6 ltr     Percent
  -------------------------------------------------------------------------------------------------
  WS01000070           JUNCTION      0.00     0.00     0  00:00           0           0       0.000 ltr
  WS01000323           JUNCTION      0.00     0.00     0  00:00           0           0       0.000 ltr
  WS01000533           JUNCTION      0.00     0.00     0  00:00           0           0       0.000 ltr
  WS01005172           JUNCTION      0.00     0.00     0  00:00           0           0       0.000 ltr
  WS01005181           JUNCTION      0.00     0.00     0  00:00           0           0       0.000 ltr
  WS01009841           JUNCTION      0.00     0.00     0  00:00           0           0       0.000 ltr
  WS02000078           JUNCTION      0.00     0.00     0  00:00           0           0       0.000 ltr
  WS02000112           JUNCTION      0.00     0.00     0  00:00           0           0       0.000 ltr
  WS02000136           JUNCTION      0.00     0.00     0  00:00           0           0       0.000 ltr
  WS02001211           JUNCTION      0.25    35.99     0  03:14      0.0407        4.55       0.560
  WS02001212           JUNCTION      0.21    36.39     0  03:27      0.0346        4.56       0.312
  WS02001213           JUNCTION      0.30    40.62     0  03:37      0.0489        4.59       0.425
  WS02003059           JUNCTION      0.23    38.51     0  03:12      0.0378        4.61       0.511
  WS02003060           JUNCTION      0.16   136.22     0  03:10      0.0252         9.4       0.362
  WS02003066           JUNCTION      0.08   122.39     0  03:09      0.0122        4.78       0.183
  WS02003067           JUNCTION      0.26    95.45     0  03:05      0.0395        4.77       0.118
  WS02003071           JUNCTION      0.35   132.37     0  03:11      0.0538        9.42       0.396
  WS02003072           JUNCTION      0.24   133.41     0  03:07      0.0382        9.42       0.246
  WS02003073           JUNCTION      0.07   147.43     0  03:06     0.00978        9.91       0.222
  WS02003076           JUNCTION      0.72   166.68     0  03:06        0.12          10       0.147
  WS02003077           JUNCTION      0.04    10.93     0  03:02      0.0059       0.499       0.145
  WS02003078           JUNCTION      0.03    12.30     0  03:05     0.00419       0.493      -0.029
  WS02003079           JUNCTION      0.04    10.64     0  03:04     0.00561        0.49       0.301
  WS02003093           JUNCTION      0.02     0.07     0  03:01     0.00306     0.00345       0.649
  WS02003094           JUNCTION      6.28     6.28     0  03:01       0.264       0.268       1.026
  WS02003098           JUNCTION      0.02     6.12     0  03:01     0.00293       0.268       0.627
  WS02003099           JUNCTION      0.07     6.11     0  03:02      0.0109       0.277       1.300
  WS02003102           JUNCTION      5.29    10.71     0  03:01       0.208       0.481       0.619
  WS02003103           JUNCTION      0.02    10.63     0  03:03     0.00239        0.48       0.456
  WS02003104           JUNCTION      0.02    10.62     0  03:04     0.00302       0.481       0.386
  WS02003106           JUNCTION      0.05    10.64     0  03:03     0.00727       0.487       0.477
  WS02004050           JUNCTION      0.72   184.04     0  03:08       0.119        10.1       0.562
  WS02004053           JUNCTION      0.00     0.00     0  00:00           0           0       0.000 ltr
  WS02004136           JUNCTION      0.44    32.92     0  01:20      0.0703        4.47       0.065
  WS02004139           JUNCTION      0.38    33.31     0  01:20      0.0619        4.53       0.391
  WS02004401           JUNCTION      0.05    76.34     0  03:02     0.00897        3.67       0.170
  WS02004402           JUNCTION      0.22    76.22     0  03:04      0.0335         3.7       0.156
  WS02004403           JUNCTION      0.23    76.39     0  03:05      0.0349        3.73       0.131
  WS02004404           JUNCTION      0.24    76.66     0  03:05      0.0365        3.76       0.132
  WS02004405           JUNCTION      3.65    79.32     0  03:05       0.147         3.9       0.193
  WS02004406           JUNCTION      6.83    85.37     0  03:03       0.327        4.22       0.274
  WS02004407           JUNCTION      0.11    85.45     0  03:05      0.0171        4.23       0.244
  WS02004409           JUNCTION      4.70    89.51     0  03:05       0.227        4.44       0.207
  WS02004410           JUNCTION      0.15    89.72     0  03:04      0.0226        4.46       0.210
  WS02004411           JUNCTION      0.25    89.97     0  03:04      0.0379        4.49       0.181
  WS02004412           JUNCTION      6.07    94.76     0  03:04       0.247        4.72       0.141
  WS02004413           JUNCTION      0.11    94.96     0  03:05      0.0172        4.74       0.132
  WS02004997           JUNCTION      0.42    63.57     0  02:58      0.0693        7.21       0.548
  WS02005192           JUNCTION      6.13     8.89     0  02:59       0.253       0.253       0.154
  WS02005193           JUNCTION      0.09    16.35     0  02:59      0.0146       0.296       0.273
  WS02005196           JUNCTION      0.12    11.22     0  02:59       0.019       0.276       0.283
  WS02006109           JUNCTION      0.08    70.50     0  03:01      0.0135        3.31       0.242
  WS02006110           JUNCTION      0.08    70.67     0  03:01      0.0132        3.32       0.228
  WS02006111           JUNCTION      0.24    77.11     0  03:01      0.0366        3.61       0.081
  WS02006112           JUNCTION      0.18    77.44     0  03:01      0.0273        3.63       0.191
  WS02006113           JUNCTION      6.29    76.71     0  03:01       0.266        3.58       0.155
  WS02006115           JUNCTION      0.08    77.22     0  03:02      0.0134        3.64       0.184
  WS02006116           JUNCTION      0.24    76.80     0  03:02       0.036        3.67       0.180
  WS02006183           JUNCTION      0.00     0.00     0  00:00           0           0       0.000 ltr
  WS02006228           JUNCTION      8.46    70.44     0  03:00       0.447        3.31       0.171
  WS02006229           JUNCTION      0.13    62.17     0  03:00        0.02        2.86       0.153
  WS02006230           JUNCTION      0.07    62.00     0  03:01      0.0116        2.85       0.137
  WS02006231           JUNCTION      0.13    61.93     0  03:01      0.0205        2.84       0.069
  WS02006232           JUNCTION      4.43    61.82     0  03:01        0.18        2.82       0.072
  WS02006234           JUNCTION      0.14    57.70     0  03:05      0.0216        2.64       0.075
  WS02006235           JUNCTION      0.14    57.59     0  03:05      0.0223        2.62       0.048
  WS02006238           JUNCTION      0.15    57.46     0  03:05      0.0235         2.6       0.074
  WS02006239           JUNCTION      0.11    32.06     0  03:21      0.0174        1.62       0.180
  WS02006242           JUNCTION      0.08    31.44     0  03:19      0.0129         1.6       0.231
  WS02006240           JUNCTION      0.06    31.61     0  03:21     0.00992         1.6       0.147
  WS02006243           JUNCTION      0.17    33.11     0  02:56      0.0269        1.59       0.135
  WS02006245           JUNCTION      0.07    34.64     0  02:57      0.0113        1.56       0.112
  WS02006247           JUNCTION      3.86    36.02     0  02:57       0.192        1.55       0.122
  WS02006248           JUNCTION      0.12    45.14     0  02:59      0.0192        1.52       0.055
  WS02006249           JUNCTION      0.19    44.69     0  02:59      0.0286         1.5       0.107
  WS02006251           JUNCTION      2.00    44.24     0  02:59      0.0848        1.48       0.074
  WS02006253           JUNCTION      0.11    41.73     0  02:59      0.0173         1.4       0.030
  WS02618401           JUNCTION      0.00     0.00     0  00:00           0           0       0.000 ltr
  WS8802               JUNCTION      0.00     0.00     0  00:00           0           0       0.000 ltr
  WSA1649              JUNCTION      0.00     0.00     0  00:00           0           0       0.000 ltr
  WSF200               JUNCTION      0.14   109.16     0  03:09      0.0216        4.79      -0.006
  XR-Inflow            JUNCTION    142.27   142.27     0  03:01        9.79        9.79       0.236
  WS02004114           JUNCTION      0.57    64.13     0  02:57      0.0916        7.27       0.351
  outfall-2            OUTFALL       0.00     0.00     0  00:00           0           0       0.000 ltr
  outfall-5            OUTFALL       0.00    28.48     0  02:59           0       0.161       0.000
  outfall-14           OUTFALL       0.00     0.00     0  00:00           0           0       0.000 ltr
  outfall-16           OUTFALL       0.00     0.00     0  00:00           0           0       0.000 ltr
  12                   OUTFALL       0.00   147.96     0  03:09           0        10.1       0.000
  XR-storage           STORAGE       0.00    64.13     0  02:58           0        7.25       0.022
  CC-storage           STORAGE      18.91    18.91     0  03:01        1.01        1.01     -16.777
  JK-storage           STORAGE      19.14    19.14     0  03:01       0.936       0.936     -15.487
  
  
  **********************
  Node Surcharge Summary
  **********************
  
  Surcharging occurs when water rises above the top of the highest conduit.
  ---------------------------------------------------------------------
                                               Max. Height   Min. Depth
                                   Hours       Above Crown    Below Rim
  Node                 Type      Surcharged         Meters       Meters
  ---------------------------------------------------------------------
  WS01000070           JUNCTION        4.00          0.000        0.000
  WS01000323           JUNCTION        4.00          0.000        0.000
  WS01000533           JUNCTION        4.00          0.000        2.147
  WS01005172           JUNCTION        4.00          0.000        0.000
  WS01005181           JUNCTION        4.00          0.000        0.000
  WS01009841           JUNCTION        4.00          0.000        0.000
  WS02000078           JUNCTION        4.00          0.000        0.000
  WS02000112           JUNCTION        4.00          0.000        0.000
  WS02000136           JUNCTION        4.00          0.000        0.000
  WS02004053           JUNCTION        4.00          0.000        0.000
  WS02004997           JUNCTION        3.36          5.796        0.204
  WS02005192           JUNCTION        0.08          1.779        1.040
  WS02005193           JUNCTION        0.12          2.463        0.154
  WS02005196           JUNCTION        0.10          1.888        0.818
  WS02006109           JUNCTION        0.10          0.017        1.821
  WS02006183           JUNCTION        4.00          0.000        0.000
  WS02006228           JUNCTION        0.26          0.085        2.146
  WS02006229           JUNCTION        0.25          0.089        2.365
  WS02006231           JUNCTION        0.50          0.288        1.255
  WS02006232           JUNCTION        0.42          0.332        1.157
  WS02006234           JUNCTION        0.37          0.388        0.869
  WS02006235           JUNCTION        0.43          0.498        0.796
  WS02006238           JUNCTION        0.44          0.513        0.921
  WS02006239           JUNCTION        0.44          0.497        0.832
  WS02006242           JUNCTION        0.42          0.434        0.415
  WS02006240           JUNCTION        0.39          0.407        0.996
  WS02006243           JUNCTION        0.34          0.366        0.414
  WS02006245           JUNCTION        0.29          0.314        0.541
  WS02006247           JUNCTION        0.29          0.286        0.474
  WS02006249           JUNCTION        0.19          0.388        0.000
  WS02006251           JUNCTION        0.16          1.284        0.226
  WS02006253           JUNCTION        0.05          1.676        0.778
  WS02618401           JUNCTION        4.00          0.000        0.000
  WS8802               JUNCTION        4.00          0.000        4.942
  WSA1649              JUNCTION        4.00          0.000        0.000
  XR-Inflow            JUNCTION        3.33          5.650        0.000
  WS02004114           JUNCTION        3.36          5.756        0.759
  
  
  *********************
  Node Flooding Summary
  *********************
  
  Flooding refers to all water that overflows a node, whether it ponds or not.
  --------------------------------------------------------------------------
                                                             Total   Maximum
                                 Maximum   Time of Max       Flood    Ponded
                        Hours       Rate    Occurrence      Volume     Depth
  Node                 Flooded       MLD   days hr:min    10^6 ltr    Meters
  --------------------------------------------------------------------------
  WS02006249              0.01      2.82      0  02:59       0.000     0.000
  XR-Inflow               1.60     79.12      0  03:01       2.626     0.000
  XR-storage              2.28     64.03      0  02:40       2.781     0.000
  JK-storage              0.23     10.72      0  02:40       0.072     0.000
  
  
  **********************
  Storage Volume Summary
  **********************
  
  --------------------------------------------------------------------------------------------------
                         Average     Avg  Evap Exfil       Maximum     Max    Time of Max    Maximum
                          Volume    Pcnt  Pcnt  Pcnt        Volume    Pcnt     Occurrence    Outflow
  Storage Unit           1000 m3    Full  Loss  Loss       1000 m3    Full    days hr:min        MLD
  --------------------------------------------------------------------------------------------------
  XR-storage               0.053      85     0     0         0.063     100       0  00:14      32.48
  CC-storage               0.030      19     0     0         0.137      86       0  02:35      34.56
  JK-storage               0.035      26     0     0         0.136     100       0  02:33      34.56
  
  
  ***********************
  Outfall Loading Summary
  ***********************
  
  ---------------------------------------------------------------------------------------------------------------------------------
                         Flow       Avg       Max       Total         Total         Total         Total         Total         Total
                         Freq      Flow      Flow      Volume           COD         NH3-N            TN            TP            SS
  Outfall Node           Pcnt       MLD       MLD    10^6 ltr            kg            kg            kg            kg            kg
  ---------------------------------------------------------------------------------------------------------------------------------
  outfall-2              0.00      0.00      0.00       0.000         0.000         0.000         0.000         0.000         0.000
  outfall-5             25.68     14.75     28.48       0.161        19.455         0.000         0.000         0.000         0.000
  outfall-14             0.00      0.00      0.00       0.000         0.000         0.000         0.000         0.000         0.000
  outfall-16             0.00      0.00      0.00       0.000         0.000         0.000         0.000         0.000         0.000
  12                    99.98     79.62    147.96      10.052      1437.145         0.000         0.000         0.000         0.000
  ---------------------------------------------------------------------------------------------------------------------------------
  System                25.13     94.37    157.45      10.214      1456.600         0.000         0.000         0.000         0.000
  
  
  ********************
  Link Flow Summary
  ********************
  
  -----------------------------------------------------------------------------
                                 Maximum  Time of Max   Maximum    Max/    Max/
                                  |Flow|   Occurrence   |Veloc|    Full    Full
  Link                 Type          MLD  days hr:min     m/sec    Flow   Depth
  -----------------------------------------------------------------------------
  WSL49                CONDUIT    165.96     0  03:06      2.60    2.06    0.72
  WSL1465              CONDUIT     40.78     0  03:40      1.46    0.37    0.75
  WSL1472              CONDUIT    133.20     0  03:07      2.00    1.52    0.67
  WSL1475              CONDUIT    183.33     0  03:08      3.15    1.96    0.47
  WSL1476              CONDUIT     12.86     0  03:08      0.54    0.06    0.59
  WSL1477              CONDUIT     12.28     0  03:05      2.32    0.49    0.27
  WSL1490              CONDUIT     36.18     0  03:27      1.35    0.59    0.56
  WSL1491              CONDUIT     40.35     0  03:37      1.32    0.24    0.62
  WSL1492              CONDUIT     38.29     0  03:12      1.29    0.59    0.69
  WSL1507              CONDUIT      0.17     0  03:03      0.11    0.00    0.19
  WSL1508              CONDUIT      6.11     0  03:01      0.88    0.17    0.22
  WSL1512              CONDUIT      6.06     0  03:02      0.60    0.04    0.21
  WSL1513              CONDUIT      6.19     0  03:03      0.49    0.36    0.33
  WSL1515              CONDUIT    122.32     0  03:09      2.94    1.19    0.44
  WSL1516              CONDUIT     10.90     0  03:02      4.01    0.04    0.18
  WSL1518              CONDUIT     10.61     0  03:03      0.83    0.21    0.34
  WSL1519              CONDUIT     10.60     0  03:03      0.82    0.26    0.34
  WSL1521              CONDUIT     10.61     0  03:04      0.89    0.30    0.32
  WSL1543              CONDUIT     10.61     0  03:04      0.79    0.33    0.35
  WSL1961              CONDUIT     32.93     0  00:20      2.24    0.07    0.31
  WSL1964              CONDUIT     35.76     0  03:14      1.19    0.19    0.41
  WSL2010              CONDUIT     76.21     0  03:05      1.38    0.97    0.76
  WSL2011              CONDUIT     76.46     0  03:05      1.33    0.49    0.80
  WSL2012              CONDUIT     76.72     0  03:06      1.28    1.17    0.83
  WSL2013              CONDUIT     79.36     0  03:05      1.35    1.97    0.81
  WSL2014              CONDUIT     85.35     0  03:05      1.53    1.36    0.77
  WSL2015              CONDUIT     85.55     0  03:05      1.61    1.15    0.73
  WSL2016              CONDUIT     89.59     0  03:04      1.77    1.03    0.70
  WSL2017              CONDUIT     89.77     0  03:04      1.92    1.09    0.66
  WSL2018              CONDUIT     94.86     0  03:05      2.38    0.57    0.58
  WSL2019              CONDUIT     95.24     0  03:05      2.28    0.56    0.65
  WSL2028              CONDUIT     76.05     0  03:04      1.40    0.81    0.76
  WSL2029              CONDUIT     90.11     0  03:05      2.16    1.14    0.59
  WSL2038              CONDUIT      7.15     0  02:59      0.59    0.36    1.00
  WSL2039              CONDUIT      9.31     0  02:58      0.88    0.48    1.00
  WSL2041              CONDUIT      9.25     0  02:59      0.66    0.45    1.00
  WSL2294              CONDUIT     70.59     0  03:01      1.65    2.37    0.95
  WSL2295              CONDUIT     70.72     0  03:02      1.86    3.18    0.83
  WSL2296              CONDUIT     77.29     0  03:01      2.24    0.44    0.74
  WSL2297              CONDUIT     77.15     0  03:02      1.46    1.48    0.74
  WSL2298              CONDUIT     76.91     0  03:01      2.61    3.54    0.65
  WSL2301              CONDUIT     76.61     0  03:02      1.46    0.71    0.74
  WSL2302              CONDUIT     76.29     0  03:02      1.42    0.94    0.75
  WSL2441              CONDUIT     70.43     0  03:01      1.62    1.80    1.00
  WSL2442              CONDUIT     62.06     0  03:00      1.87    1.59    1.00
  WSL2443              CONDUIT     61.94     0  03:01      1.86    0.97    1.00
  WSL2444              CONDUIT     61.82     0  03:01      1.86    0.98    1.00
  WSL2446              CONDUIT     57.70     0  03:05      1.78    0.99    1.00
  WSL2447              CONDUIT     57.59     0  03:05      1.73    2.96    1.00
  WSL2448              CONDUIT     57.47     0  03:05      1.73    1.62    1.00
  WSL2449              CONDUIT     32.07     0  03:20      1.07    1.12    1.00
  WSL2450              CONDUIT     31.96     0  03:21      1.15    0.66    1.00
  WSL2451              CONDUIT     31.56     0  03:21      1.16    2.06    1.00
  WSL2452              CONDUIT     31.37     0  03:19      1.20    0.60    1.00
  WSL2454              CONDUIT     32.95     0  02:56      1.35    0.77    1.00
  WSL2478              CONDUIT     34.57     0  02:57      1.30    1.22    1.00
  WSL2479              CONDUIT     32.75     0  02:57      1.25    0.62    1.00
  WSL2480              CONDUIT     45.03     0  02:59      1.35    2.08    1.00
  WSL2482              CONDUIT     44.53     0  02:59      1.34    1.16    1.00
  WSL2484              CONDUIT     42.35     0  02:59      1.42    0.60    1.00
  WSL2493              CONDUIT     62.17     0  03:00      1.43    1.05    1.00
  WSL2867              CONDUIT    109.04     0  03:09      3.95    0.22    0.33
  WSL2868              CONDUIT    100.24     0  03:10      2.12    0.19    0.50
  WSL348               CONDUIT     63.17     0  03:05      1.88    0.58    1.00
  WSL175               CONDUIT     63.59     0  02:57      2.32    2.14    1.00
  WSL1467              CONDUIT    132.08     0  03:11      1.90    0.70    0.68
  WSL1473              CONDUIT    136.81     0  03:06      2.12    0.56    0.71
  XRpipe               CONDUIT     64.13     0  02:58      8.37    0.16    1.00
  8                    CONDUIT     28.48     0  02:59      6.48    0.38    0.43
  19                   CONDUIT      0.00     0  00:00      0.00    0.00    0.00
  17                   CONDUIT      0.00     0  00:00      0.00    0.00    0.00
  4                    CONDUIT      0.00     0  00:00      0.00    0.00    0.00
  2                    CONDUIT    147.96     0  03:09      4.14    0.53    0.52
  XR-Pump-1            PUMP         8.12     0  00:20              1.00
  XR-Pump-3            PUMP         8.12     0  00:20              1.00
  XR-Pump-2            PUMP         8.12     0  00:20              1.00
  XR-Pump-4            PUMP         8.12     0  00:20              1.00
  CC-Pump-1            PUMP        17.28     0  03:00              1.00
  CC-Pump-2            PUMP        17.28     0  01:40              1.00
  JK-Pump-1            PUMP        17.28     0  03:00              1.00
  JK-Pump-2            PUMP        17.28     0  01:50              1.00
  
  
  ***************************
  Flow Classification Summary
  ***************************
  
  -------------------------------------------------------------------------------------
                      Adjusted    ---------- Fraction of Time in Flow Class ---------- 
                       /Actual         Up    Down  Sub   Sup   Up    Down  Norm  Inlet 
  Conduit               Length    Dry  Dry   Dry   Crit  Crit  Crit  Crit  Ltd   Ctrl  
  -------------------------------------------------------------------------------------
  WSL49                   1.00   0.00  0.00  0.00  1.00  0.00  0.00  0.00  0.00  0.00
  WSL1465                 1.00   0.00  0.00  0.00  1.00  0.00  0.00  0.00  0.05  0.00
  WSL1472                 1.00   0.00  0.00  0.00  1.00  0.00  0.00  0.00  0.00  0.00
  WSL1475                 1.00   0.00  0.00  0.00  0.16  0.84  0.00  0.00  0.01  0.00
  WSL1476                 1.00   0.00  0.00  0.00  1.00  0.00  0.00  0.00  0.99  0.00
  WSL1477                 1.00   0.00  0.00  0.00  0.00  1.00  0.00  0.00  0.43  0.00
  WSL1490                 1.00   0.00  0.00  0.00  1.00  0.00  0.00  0.00  0.01  0.00
  WSL1491                 1.00   0.00  0.00  0.00  1.00  0.00  0.00  0.00  0.12  0.00
  WSL1492                 1.00   0.00  0.00  0.00  1.00  0.00  0.00  0.00  0.02  0.00
  WSL1507                 1.00   0.00  0.00  0.00  1.00  0.00  0.00  0.00  0.65  0.00
  WSL1508                 1.00   0.00  0.00  0.00  1.00  0.00  0.00  0.00  0.00  0.00
  WSL1512                 1.00   0.00  0.00  0.00  1.00  0.00  0.00  0.00  1.00  0.00
  WSL1513                 1.00   0.00  0.00  0.00  1.00  0.00  0.00  0.00  0.00  0.00
  WSL1515                 1.00   0.00  0.00  0.00  0.11  0.89  0.00  0.00  0.04  0.00
  WSL1516                 1.00   0.00  0.00  0.00  0.00  1.00  0.00  0.00  1.00  0.00
  WSL1518                 1.00   0.00  0.00  0.00  1.00  0.00  0.00  0.00  0.56  0.00
  WSL1519                 1.00   0.00  0.00  0.00  1.00  0.00  0.00  0.00  0.36  0.00
  WSL1521                 1.00   0.00  0.00  0.00  1.00  0.00  0.00  0.00  0.02  0.00
  WSL1543                 1.00   0.00  0.00  0.00  1.00  0.00  0.00  0.00  0.02  0.00
  WSL1961                 1.00   0.00  0.00  0.00  0.04  0.96  0.00  0.00  1.00  0.00
  WSL1964                 1.00   0.00  0.00  0.00  1.00  0.00  0.00  0.00  0.12  0.00
  WSL2010                 1.00   0.00  0.00  0.00  1.00  0.00  0.00  0.00  0.01  0.00
  WSL2011                 1.00   0.00  0.00  0.00  1.00  0.00  0.00  0.00  0.18  0.00
  WSL2012                 1.00   0.00  0.00  0.00  1.00  0.00  0.00  0.00  0.00  0.00
  WSL2013                 1.00   0.00  0.00  0.00  1.00  0.00  0.00  0.00  0.00  0.00
  WSL2014                 1.00   0.00  0.00  0.00  1.00  0.00  0.00  0.00  0.00  0.00
  WSL2015                 1.00   0.00  0.00  0.00  1.00  0.00  0.00  0.00  0.02  0.00
  WSL2016                 1.00   0.00  0.00  0.00  1.00  0.00  0.00  0.00  0.05  0.00
  WSL2017                 1.00   0.00  0.00  0.00  1.00  0.00  0.00  0.00  0.04  0.00
  WSL2018                 1.00   0.00  0.00  0.00  0.01  0.99  0.00  0.00  0.12  0.00
  WSL2019                 1.00   0.00  0.00  0.00  0.42  0.58  0.00  0.00  0.11  0.00
  WSL2028                 1.00   0.00  0.00  0.00  1.00  0.00  0.00  0.00  0.06  0.00
  WSL2029                 1.00   0.00  0.00  0.00  0.65  0.35  0.00  0.00  0.00  0.00
  WSL2038                 1.00   0.00  0.00  0.00  1.00  0.00  0.00  0.00  0.01  0.00
  WSL2039                 1.00   0.00  0.00  0.00  0.97  0.03  0.00  0.00  0.02  0.00
  WSL2041                 1.00   0.00  0.00  0.00  1.00  0.00  0.00  0.00  0.21  0.00
  WSL2294                 1.00   0.00  0.00  0.00  1.00  0.00  0.00  0.00  0.00  0.00
  WSL2295                 1.00   0.00  0.00  0.00  1.00  0.00  0.00  0.00  0.00  0.00
  WSL2296                 1.00   0.00  0.00  0.00  0.47  0.53  0.00  0.00  0.69  0.00
  WSL2297                 1.00   0.00  0.00  0.00  1.00  0.00  0.00  0.00  0.00  0.00
  WSL2298                 1.00   0.00  0.00  0.00  0.04  0.96  0.00  0.00  0.00  0.00
  WSL2301                 1.00   0.00  0.00  0.00  1.00  0.00  0.00  0.00  0.09  0.00
  WSL2302                 1.00   0.00  0.00  0.00  1.00  0.00  0.00  0.00  0.03  0.00
  WSL2441                 1.00   0.00  0.00  0.00  1.00  0.00  0.00  0.00  0.01  0.00
  WSL2442                 1.00   0.00  0.00  0.00  1.00  0.00  0.00  0.00  0.12  0.00
  WSL2443                 1.00   0.00  0.00  0.00  1.00  0.00  0.00  0.00  0.47  0.00
  WSL2444                 1.00   0.00  0.00  0.00  0.44  0.56  0.00  0.00  0.32  0.00
  WSL2446                 1.00   0.00  0.00  0.00  0.51  0.49  0.00  0.00  0.25  0.00
  WSL2447                 1.00   0.00  0.00  0.00  1.00  0.00  0.00  0.00  0.00  0.00
  WSL2448                 1.00   0.00  0.00  0.00  1.00  0.00  0.00  0.00  0.02  0.00
  WSL2449                 1.00   0.00  0.00  0.00  1.00  0.00  0.00  0.00  0.05  0.00
  WSL2450                 1.00   0.00  0.00  0.00  1.00  0.00  0.00  0.00  0.34  0.00
  WSL2451                 1.00   0.00  0.00  0.00  1.00  0.00  0.00  0.00  0.00  0.00
  WSL2452                 1.00   0.00  0.00  0.00  1.00  0.00  0.00  0.00  0.56  0.00
  WSL2454                 1.00   0.00  0.00  0.00  1.00  0.00  0.00  0.00  0.05  0.00
  WSL2478                 1.00   0.00  0.00  0.00  1.00  0.00  0.00  0.00  0.00  0.00
  WSL2479                 1.00   0.00  0.00  0.00  1.00  0.00  0.00  0.00  0.53  0.00
  WSL2480                 1.00   0.00  0.00  0.00  1.00  0.00  0.00  0.00  0.00  0.00
  WSL2482                 1.00   0.00  0.00  0.00  1.00  0.00  0.00  0.00  0.55  0.00
  WSL2484                 1.00   0.00  0.00  0.00  0.99  0.01  0.00  0.00  0.55  0.00
  WSL2493                 1.00   0.00  0.00  0.00  1.00  0.00  0.00  0.00  0.05  0.00
  WSL2867                 1.00   0.00  0.00  0.00  0.00  1.00  0.00  0.00  0.22  0.00
  WSL2868                 1.00   0.00  0.00  0.00  0.87  0.13  0.00  0.00  0.78  0.00
  WSL348                  1.00   0.00  0.00  0.00  0.98  0.02  0.00  0.00  0.01  0.00
  WSL175                  1.00   0.00  0.00  0.00  0.94  0.06  0.00  0.00  0.00  0.00
  WSL1467                 1.00   0.00  0.00  0.00  1.00  0.00  0.00  0.00  0.13  0.00
  WSL1473                 1.00   0.00  0.00  0.00  1.00  0.00  0.00  0.00  0.07  0.00
  XRpipe                  1.00   0.00  0.00  0.00  0.96  0.04  0.00  0.00  0.03  0.00
  8                       1.00   0.74  0.00  0.00  0.00  0.26  0.00  0.00  0.06  0.00
  19                      1.00   1.00  0.00  0.00  0.00  0.00  0.00  0.00  0.00  0.00
  17                      1.00   1.00  0.00  0.00  0.00  0.00  0.00  0.00  0.00  0.00
  4                       1.00   1.00  0.00  0.00  0.00  0.00  0.00  0.00  0.00  0.00
  2                       1.00   0.00  0.00  0.00  0.00  1.00  0.00  0.00  0.22  0.00
  
  
  *************************
  Conduit Surcharge Summary
  *************************
  
  ----------------------------------------------------------------------------
                                                           Hours        Hours 
                         --------- Hours Full --------   Above Full   Capacity
  Conduit                Both Ends  Upstream  Dnstream   Normal Flow   Limited
  ----------------------------------------------------------------------------
  WSL49                       0.01      0.01      0.01      0.88         0.01
  WSL1472                     0.01      0.01      0.01      0.78         0.01
  WSL1475                     0.01      0.01      0.01      0.71         0.01
  WSL1476                     0.01      0.01      0.18      0.01         0.01
  WSL1515                     0.01      0.01      0.01      0.05         0.01
  WSL2012                     0.01      0.01      0.01      0.37         0.01
  WSL2013                     0.01      0.01      0.01      0.80         0.01
  WSL2014                     0.01      0.01      0.01      0.61         0.01
  WSL2015                     0.01      0.01      0.01      0.30         0.01
  WSL2016                     0.01      0.01      0.01      0.11         0.01
  WSL2017                     0.01      0.01      0.01      0.21         0.01
  WSL2029                     0.01      0.01      0.01      0.28         0.01
  WSL2038                     0.08      0.08      0.10      0.01         0.01
  WSL2039                     0.12      0.12      0.14      0.01         0.01
  WSL2041                     0.10      0.10      0.12      0.01         0.01
  WSL2294                     0.01      0.10      0.01      0.84         0.01
  WSL2295                     0.01      0.01      0.01      1.12         0.01
  WSL2297                     0.01      0.01      0.01      0.66         0.01
  WSL2298                     0.01      0.01      0.01      1.20         0.01
  WSL2441                     0.10      0.26      0.10      0.76         0.10
  WSL2442                     0.54      0.58      0.54      0.70         0.54
  WSL2443                     0.50      0.50      0.58      0.01         0.01
  WSL2444                     0.42      0.42      0.50      0.01         0.01
  WSL2446                     0.37      0.37      0.42      0.01         0.01
  WSL2447                     0.37      0.43      0.37      1.06         0.37
  WSL2448                     0.43      0.44      0.43      0.71         0.43
  WSL2449                     0.44      0.44      0.44      0.29         0.22
  WSL2450                     0.39      0.39      0.44      0.01         0.01
  WSL2451                     0.39      0.42      0.39      0.95         0.38
  WSL2452                     0.34      0.34      0.42      0.01         0.01
  WSL2454                     0.28      0.29      0.34      0.01         0.01
  WSL2478                     0.28      0.29      0.29      0.27         0.10
  WSL2479                     0.16      0.16      0.29      0.01         0.01
  WSL2480                     0.16      0.19      0.16      0.72         0.16
  WSL2482                     0.15      0.16      0.19      0.09         0.08
  WSL2484                     0.05      0.05      0.16      0.01         0.01
  WSL2493                     0.25      0.25      0.26      0.14         0.13
  WSL348                      3.33      3.33      3.35      0.01         0.01
  WSL175                      3.35      3.35      3.36      2.46         2.61
  XRpipe                      3.36      3.36      3.72      0.01         0.01
  
  
  ***************
  Pumping Summary
  ***************
  
  ---------------------------------------------------------------------------------------------------------
                                                  Min       Avg       Max     Total     Power    % Time Off
                        Percent   Number of      Flow      Flow      Flow    Volume     Usage    Pump Curve
  Pump                 Utilized   Start-Ups       MLD       MLD       MLD  10^6 ltr     Kw-hr    Low   High
  ---------------------------------------------------------------------------------------------------------
  XR-Pump-1               91.62           3      0.00      7.50      8.12     1.099      5.69    0.0    0.0
  XR-Pump-3               91.62           3      0.00      7.50      8.12     1.099      5.69    0.0    0.0
  XR-Pump-2               91.62           3      0.00      7.50      8.12     1.099      5.69    0.0    0.0
  XR-Pump-4               91.62           3      0.00      7.50      8.12     1.099      5.69    0.0    0.0
  CC-Pump-1               16.67           1      0.00     12.34     17.28     0.293      3.77    0.0    0.0
  CC-Pump-2               54.17           3      0.00     10.95     17.28     0.799      7.62    0.0    0.0
  JK-Pump-1               16.67           1      0.00     12.42     17.28     0.293      3.31    0.0    0.0
  JK-Pump-2               45.83           3      0.00     11.06     17.28     0.668      6.19    0.0    0.0
  
  
  ***************************
  Link Pollutant Load Summary
  ***************************
  
  ------------------------------------------------------------------------------------------
                                 COD         NH3-N            TN            TP            SS
  Link                            kg            kg            kg            kg            kg
  ------------------------------------------------------------------------------------------
  WSL49                     1404.433         0.000         0.000         0.000         0.000
  WSL1465                    631.131         0.000         0.000         0.000         0.000
  WSL1472                   1311.231         0.000         0.000         0.000         0.000
  WSL1475                   1422.409         0.000         0.000         0.000         0.000
  WSL1476                     92.252         0.000         0.000         0.000         0.000
  WSL1477                     90.188         0.000         0.000         0.000         0.000
  WSL1490                    618.383         0.000         0.000         0.000         0.000
  WSL1491                    621.699         0.000         0.000         0.000         0.000
  WSL1492                    628.318         0.000         0.000         0.000         0.000
  WSL1507                      0.774         0.000         0.000         0.000         0.000
  WSL1508                     56.389         0.000         0.000         0.000         0.000
  WSL1512                     56.681         0.000         0.000         0.000         0.000
  WSL1513                     57.982         0.000         0.000         0.000         0.000
  WSL1515                    672.657         0.000         0.000         0.000         0.000
  WSL1516                     90.885         0.000         0.000         0.000         0.000
  WSL1518                     87.919         0.000         0.000         0.000         0.000
  WSL1519                     88.401         0.000         0.000         0.000         0.000
  WSL1521                     89.366         0.000         0.000         0.000         0.000
  WSL1543                     88.108         0.000         0.000         0.000         0.000
  WSL1961                    606.105         0.000         0.000         0.000         0.000
  WSL1964                    614.804         0.000         0.000         0.000         0.000
  WSL2010                    419.348         0.000         0.000         0.000         0.000
  WSL2011                    424.244         0.000         0.000         0.000         0.000
  WSL2012                    429.453         0.000         0.000         0.000         0.000
  WSL2013                    450.813         0.000         0.000         0.000         0.000
  WSL2014                    561.897         0.000         0.000         0.000         0.000
  WSL2015                    562.722         0.000         0.000         0.000         0.000
  WSL2016                    623.817         0.000         0.000         0.000         0.000
  WSL2017                    625.831         0.000         0.000         0.000         0.000
  WSL2018                    665.291         0.000         0.000         0.000         0.000
  WSL2019                    667.064         0.000         0.000         0.000         0.000
  WSL2028                    414.748         0.000         0.000         0.000         0.000
  WSL2029                    630.709         0.000         0.000         0.000         0.000
  WSL2038                     36.995         0.000         0.000         0.000         0.000
  WSL2039                     44.617         0.000         0.000         0.000         0.000
  WSL2041                     41.380         0.000         0.000         0.000         0.000
  WSL2294                    395.449         0.000         0.000         0.000         0.000
  WSL2295                    396.107         0.000         0.000         0.000         0.000
  WSL2296                    405.095         0.000         0.000         0.000         0.000
  WSL2297                    408.605         0.000         0.000         0.000         0.000
  WSL2298                    399.495         0.000         0.000         0.000         0.000
  WSL2301                    409.542         0.000         0.000         0.000         0.000
  WSL2302                    414.426         0.000         0.000         0.000         0.000
  WSL2441                    394.772         0.000         0.000         0.000         0.000
  WSL2442                    267.372         0.000         0.000         0.000         0.000
  WSL2443                    266.273         0.000         0.000         0.000         0.000
  WSL2444                    263.205         0.000         0.000         0.000         0.000
  WSL2446                    261.398         0.000         0.000         0.000         0.000
  WSL2447                    257.934         0.000         0.000         0.000         0.000
  WSL2448                    254.094         0.000         0.000         0.000         0.000
  WSL2449                    173.873         0.000         0.000         0.000         0.000
  WSL2450                    171.454         0.000         0.000         0.000         0.000
  WSL2451                    170.406         0.000         0.000         0.000         0.000
  WSL2452                    168.885         0.000         0.000         0.000         0.000
  WSL2454                    164.859         0.000         0.000         0.000         0.000
  WSL2478                    163.136         0.000         0.000         0.000         0.000
  WSL2479                    136.739         0.000         0.000         0.000         0.000
  WSL2480                    153.062         0.000         0.000         0.000         0.000
  WSL2482                    149.183         0.000         0.000         0.000         0.000
  WSL2484                    127.529         0.000         0.000         0.000         0.000
  WSL2493                    269.880         0.000         0.000         0.000         0.000
  WSL2867                    673.299         0.000         0.000         0.000         0.000
  WSL2868                    677.019         0.000         0.000         0.000         0.000
  WSL348                     987.869         0.000         0.000         0.000         0.000
  WSL175                     994.484         0.000         0.000         0.000         0.000
  WSL1467                   1307.602         0.000         0.000         0.000         0.000
  WSL1473                   1314.043         0.000         0.000         0.000         0.000
  XRpipe                    1009.391         0.000         0.000         0.000         0.000
  8                           19.455         0.000         0.000         0.000         0.000
  19                           0.000         0.000         0.000         0.000         0.000
  17                           0.000         0.000         0.000         0.000         0.000
  4                            0.000         0.000         0.000         0.000         0.000
  2                         1437.145         0.000         0.000         0.000         0.000
  XR-Pump-1                  148.465         0.000         0.000         0.000         0.000
  XR-Pump-3                  148.465         0.000         0.000         0.000         0.000
  XR-Pump-2                  148.465         0.000         0.000         0.000         0.000
  XR-Pump-4                  148.465         0.000         0.000         0.000         0.000
  CC-Pump-1                   15.503         0.000         0.000         0.000         0.000
  CC-Pump-2                   66.986         0.000         0.000         0.000         0.000
  JK-Pump-1                   21.950         0.000         0.000         0.000         0.000
  JK-Pump-2                   55.322         0.000         0.000         0.000         0.000
  

  Analysis begun on:  Wed Mar 20 15:02:06 2019
  Analysis ended on:  Wed Mar 20 15:02:07 2019
  Total elapsed time: 00:00:01