
  EPA STORM WATER MANAGEMENT MODEL - VERSION 5.1 (Build 5.2.0.dev1)
  --------------------------------------------------------------

  
  *********************************************************
  NOTE: The summary statistics displayed in this report are
  based on results found at every computational time step,  
  not just on results from each reporting time step.
  *********************************************************
  
  ****************
  Analysis Options
  ****************
  Flow Units ............... MLD
  Process Models:
    Rainfall/Runoff ........ YES
    RDII ................... NO
    Snowmelt ............... NO
    Groundwater ............ NO
    Flow Routing ........... YES
    Ponding Allowed ........ NO
    Water Quality .......... YES
  Infiltration Method ...... GREEN_AMPT
  Flow Routing Method ...... DYNWAVE
  Starting Date ............ 08/28/2015 08:00:00
  Ending Date .............. 08/28/2015 12:00:00
  Antecedent Dry Days ...... 4.0
  Report Time Step ......... 00:01:00
  Wet Time Step ............ 00:01:00
  Dry Time Step ............ 00:01:00
  Routing Time Step ........ 5.00 sec
  Variable Time Step ....... YES
  Maximum Trials ........... 8
  Number of Threads ........ 1
  Head Tolerance ........... 0.001500 m
  
  
  **************************        Volume         Depth
  Runoff Quantity Continuity     hectare-m            mm
  **************************     ---------       -------
  Total Precipitation ......         6.980        24.747
  Evaporation Loss .........         0.000         0.000
  Infiltration Loss ........         2.844        10.085
  Surface Runoff ...........         2.031         7.202
  Final Storage ............         2.108         7.474
  Continuity Error (%) .....        -0.056
  
  
  **************************           COD         NH3-N            TN            TP            SS
  Runoff Quality Continuity             kg            kg            kg            kg            kg
  **************************    ----------    ----------    ----------    ----------    ----------
  Initial Buildup ..........     13074.240         0.000         0.000         0.000         0.000
  Surface Buildup ..........       104.307         0.000         0.000         0.000         0.000
  Wet Deposition ...........         0.000         0.000         0.000         0.000         0.000
  Sweeping Removal .........         0.000         0.000         0.000         0.000         0.000
  Infiltration Loss ........       247.401         0.000         0.000         0.000         0.000
  BMP Removal ..............         0.000         0.000         0.000         0.000         0.000
  Surface Runoff ...........      4067.033         0.000         0.000         0.000         0.000
  Remaining Buildup ........      8861.286         0.000         0.000         0.000         0.000
  Continuity Error (%) .....         0.021         0.000         0.000         0.000         0.000
  
  
  **************************        Volume        Volume
  Flow Routing Continuity        hectare-m      10^6 ltr
  **************************     ---------     ---------
  Dry Weather Inflow .......         0.000         0.000
  Wet Weather Inflow .......         2.026        20.259
  Groundwater Inflow .......         0.000         0.000
  RDII Inflow ..............         0.000         0.000
  External Inflow ..........         0.561         5.611
  External Outflow .........         1.386        13.855
  Flooding Loss ............         1.140        11.399
  Evaporation Loss .........         0.000         0.000
  Exfiltration Loss ........         0.000         0.000
  Initial Stored Volume ....         0.000         0.000
  Final Stored Volume ......         0.113         1.125
  Continuity Error (%) .....        -1.970
  
  
  **************************           COD         NH3-N            TN            TP            SS
  Quality Routing Continuity            kg            kg            kg            kg            kg
  **************************    ----------    ----------    ----------    ----------    ----------
  Dry Weather Inflow .......         0.000         0.000         0.000         0.000         0.000
  Wet Weather Inflow .......      4059.943         0.000         0.000         0.000         0.000
  Groundwater Inflow .......         0.000         0.000         0.000         0.000         0.000
  RDII Inflow ..............         0.000         0.000         0.000         0.000         0.000
  External Inflow ..........       937.011         0.000         0.000         0.000         0.000
  External Outflow .........      2446.885         0.000         0.000         0.000         0.000
  Flooding Loss ............      2217.196         0.000         0.000         0.000         0.000
  Exfiltration Loss ........         0.000         0.000         0.000         0.000         0.000
  Mass Reacted .............         0.000         0.000         0.000         0.000         0.000
  Initial Stored Mass ......         0.000         0.000         0.000         0.000         0.000
  Final Stored Mass ........       149.070         0.000         0.000         0.000         0.000
  Continuity Error (%) .....         3.678         0.000         0.000         0.000         0.000
  
  
  *************************
  Highest Continuity Errors
  *************************
  Node WS02003099 (1.09%)
  
  
  ***************************
  Time-Step Critical Elements
  ***************************
  Link 8 (47.38%)
  Link WSL2448 (25.32%)
  Link WSL1477 (17.07%)
  Link XRpipe (4.93%)
  
  
  ********************************
  Highest Flow Instability Indexes
  ********************************
  Link WSL1477 (69)
  Link WSL1516 (63)
  Link WSL1521 (33)
  Link WSL1476 (22)
  Link WSL1515 (18)
  
  
  *************************
  Routing Time Step Summary
  *************************
  Minimum Time Step           :     0.01 sec
  Average Time Step           :     1.56 sec
  Maximum Time Step           :     5.00 sec
  Percent in Steady State     :    -0.00
  Average Iterations per Step :     2.59
  Percent Not Converging      :     6.27
  
  
  ***************************
  Subcatchment Runoff Summary
  ***************************
  
  --------------------------------------------------------------------------------------------------------
                            Total      Total      Total      Total      Total       Total     Peak  Runoff
                           Precip      Runon       Evap      Infil     Runoff      Runoff   Runoff   Coeff
  Subcatchment                 mm         mm         mm         mm         mm    10^6 ltr      MLD
  --------------------------------------------------------------------------------------------------------
  1                         24.75      34.41       0.00      11.22      31.61        0.38     7.01   0.534
  2                         24.75       0.00       0.00       8.86       9.32        0.31     6.38   0.377
  3                         24.75       0.00       0.00       8.94       8.77        0.45     8.99   0.354
  4                         24.75       0.00       0.00       8.81       9.65        0.26     5.25   0.390
  5                         24.75      22.86       0.00      10.81      23.74        0.40     7.74   0.499
  6                         24.75       0.00       0.00       8.93       8.81        0.44     8.75   0.356
  7                         24.75       0.00       0.00      10.64       7.66       12.26   218.23   0.310
  8                         24.75       0.00       0.00       8.91       9.01        0.38     7.71   0.364
  9                         24.75       8.91       0.00       9.86      13.43        0.51     9.90   0.399
  17                        24.75       0.00       0.00       8.88       9.20        0.34     6.85   0.372
  18                        24.75       0.00       0.00       8.91       8.98        0.39     7.86   0.363
  28                        24.75      31.62       0.00      11.44      26.35        0.69    12.50   0.467
  29                        24.75      13.37       0.00       9.99      16.36        0.39     7.52   0.429
  30                        24.75      35.21       0.00      11.34      34.80        0.32     6.22   0.580
  31                        24.75       0.00       0.00       8.87       9.25        0.33     6.66   0.374
  33                        24.75       0.00       0.00       8.53      11.37        0.10     2.10   0.459
  34                        24.75      20.05       0.00      10.68      21.31        0.44     8.49   0.476
  35                        24.75       0.00       0.00       8.84       9.47        0.29     5.85   0.382
  36                        24.75      19.15       0.00      10.88      17.21        1.02    18.84   0.392
  39                        24.75       0.00       0.00       8.86       9.30        0.32     6.45   0.376
  40                        24.75       5.00       0.00       9.46      11.45        0.45     8.86   0.385
  41                        24.75       0.00       0.00       8.74      10.11        0.20     4.06   0.409
  42                        24.75       0.00       0.00       8.78       9.87        0.23     4.63   0.399
  43                        24.75       0.00       0.00       8.25      12.84        0.05     1.02   0.519
  44                        24.75     285.48       0.00      17.47     252.95        0.94    16.62   0.815
  45                        24.75       0.00       0.00       8.58      11.10        0.11     2.42   0.448
  46                        24.75      16.14       0.00      10.31      18.67        0.40     7.72   0.456
  47                        24.75       0.00       0.00       8.60      10.98        0.12     2.57   0.444
  48                        24.75       7.69       0.00       9.48      14.70        0.23     4.69   0.453
  55                        24.75      11.54       0.00       9.58      18.70        0.16     3.17   0.515
  56                        24.75      17.69       0.00      10.43      19.55        0.42     8.04   0.461
  57                        24.75       0.00       0.00       8.93       8.80        0.44     8.84   0.355
  59                        24.75       0.00       0.00       8.52      11.43        0.10     2.04   0.462
  60                        24.75      24.98       0.00      10.33      29.75        0.15     3.11   0.598
  61                        24.75       0.00       0.00       9.11       7.34        1.32    25.79   0.296
  62                        24.75       0.00       0.00       9.11       7.28        1.38    27.00   0.294
  64                        24.75       0.00       0.00       8.62      10.85        0.13     2.74   0.439
  
  
  ****************************
  Subcatchment Washoff Summary
  ****************************
  
  ------------------------------------------------------------------------------------------
                                 COD         NH3-N            TN            TP            SS
  Subcatchment                    kg            kg            kg            kg            kg
  ------------------------------------------------------------------------------------------
  1                           69.153         0.000         0.000         0.000         0.000
  2                            0.000         0.000         0.000         0.000         0.000
  3                            0.000         0.000         0.000         0.000         0.000
  4                           53.483         0.000         0.000         0.000         0.000
  5                          114.283         0.000         0.000         0.000         0.000
  6                           86.856         0.000         0.000         0.000         0.000
  7                         2360.794         0.000         0.000         0.000         0.000
  8                           77.058         0.000         0.000         0.000         0.000
  9                          140.266         0.000         0.000         0.000         0.000
  17                          68.824         0.000         0.000         0.000         0.000
  18                          78.476         0.000         0.000         0.000         0.000
  28                         236.677         0.000         0.000         0.000         0.000
  29                         122.763         0.000         0.000         0.000         0.000
  30                          83.477         0.000         0.000         0.000         0.000
  31                          67.055         0.000         0.000         0.000         0.000
  33                          22.058         0.000         0.000         0.000         0.000
  34                         129.448         0.000         0.000         0.000         0.000
  35                          59.232         0.000         0.000         0.000         0.000
  36                         333.147         0.000         0.000         0.000         0.000
  39                          64.976         0.000         0.000         0.000         0.000
  40                         113.080         0.000         0.000         0.000         0.000
  41                          41.735         0.000         0.000         0.000         0.000
  42                          47.387         0.000         0.000         0.000         0.000
  43                          10.688         0.000         0.000         0.000         0.000
  44                         308.572         0.000         0.000         0.000         0.000
  45                          25.259         0.000         0.000         0.000         0.000
  46                         124.978         0.000         0.000         0.000         0.000
  47                          26.815         0.000         0.000         0.000         0.000
  48                          64.308         0.000         0.000         0.000         0.000
  55                          44.341         0.000         0.000         0.000         0.000
  56                         128.433         0.000         0.000         0.000         0.000
  57                          87.681         0.000         0.000         0.000         0.000
  59                          21.443         0.000         0.000         0.000         0.000
  60                          41.645         0.000         0.000         0.000         0.000
  61                         238.797         0.000         0.000         0.000         0.000
  62                         249.072         0.000         0.000         0.000         0.000
  64                          28.534         0.000         0.000         0.000         0.000
  ------------------------------------------------------------------------------------------
  System                    5770.797         0.000         0.000         0.000         0.000
  
  
  ******************
  Node Depth Summary
  ******************
  
  ---------------------------------------------------------------------------------
                                 Average  Maximum  Maximum  Time of Max    Reported
                                   Depth    Depth      HGL   Occurrence   Max Depth
  Node                 Type       Meters   Meters   Meters  days hr:min      Meters
  ---------------------------------------------------------------------------------
  WS01000070           JUNCTION     0.00     0.00     0.00     0  00:00        0.00
  WS01000323           JUNCTION     0.00     0.00     0.00     0  00:00        0.00
  WS01000533           JUNCTION     0.00     0.00     6.86     0  00:00        0.00
  WS01005172           JUNCTION     0.00     0.00     0.00     0  00:00        0.00
  WS01005181           JUNCTION     0.00     0.00     0.00     0  00:00        0.00
  WS01009841           JUNCTION     0.00     0.00     0.00     0  00:00        0.00
  WS02000078           JUNCTION     0.00     0.00     0.00     0  00:00        0.00
  WS02000112           JUNCTION     0.00     0.00     0.00     0  00:00        0.00
  WS02000136           JUNCTION     0.00     0.00     0.00     0  00:00        0.00
  WS02001211           JUNCTION     0.50     0.69     5.53     0  03:05        0.69
  WS02001212           JUNCTION     0.48     0.75     5.55     0  03:04        0.69
  WS02001213           JUNCTION     0.58     0.83     5.53     0  03:04        0.81
  WS02003059           JUNCTION     0.59     0.89     5.54     0  03:03        0.85
  WS02003060           JUNCTION     0.67     0.96     5.51     0  03:03        0.96
  WS02003066           JUNCTION     0.31     0.49     5.79     0  02:57        0.48
  WS02003067           JUNCTION     0.53     0.80     6.12     0  03:01        0.79
  WS02003071           JUNCTION     0.72     1.06     5.46     0  03:02        1.06
  WS02003072           JUNCTION     0.62     0.98     5.35     0  03:11        0.90
  WS02003073           JUNCTION     0.70     1.11     5.35     0  03:02        1.05
  WS02003076           JUNCTION     0.63     1.01     5.24     0  03:01        0.98
  WS02003077           JUNCTION     0.11     0.39     5.40     0  03:02        0.25
  WS02003078           JUNCTION     0.07     0.10     7.00     0  03:03        0.10
  WS02003079           JUNCTION     0.22     0.32     7.23     0  03:03        0.32
  WS02003093           JUNCTION     0.07     0.15     7.49     0  03:01        0.15
  WS02003094           JUNCTION     0.18     0.27     7.49     0  03:01        0.27
  WS02003098           JUNCTION     0.13     0.21     7.38     0  03:02        0.21
  WS02003099           JUNCTION     0.23     0.35     7.39     0  03:02        0.35
  WS02003102           JUNCTION     0.22     0.33     7.36     0  03:01        0.33
  WS02003103           JUNCTION     0.24     0.36     7.33     0  03:02        0.36
  WS02003104           JUNCTION     0.23     0.35     7.31     0  03:02        0.35
  WS02003106           JUNCTION     0.23     0.34     7.27     0  03:02        0.34
  WS02004050           JUNCTION     0.44     0.61     4.83     0  03:03        0.61
  WS02004053           JUNCTION     0.00     0.00     0.00     0  00:00        0.00
  WS02004136           JUNCTION     0.17     0.21     6.94     0  00:01        0.18
  WS02004139           JUNCTION     0.41     0.61     5.57     0  03:06        0.61
  WS02004401           JUNCTION     0.59     0.90     6.90     0  03:03        0.90
  WS02004402           JUNCTION     0.61     0.91     6.87     0  03:02        0.91
  WS02004403           JUNCTION     0.60     0.91     6.84     0  03:02        0.91
  WS02004404           JUNCTION     0.67     0.98     6.83     0  03:02        0.98
  WS02004405           JUNCTION     0.67     0.97     6.81     0  03:02        0.97
  WS02004406           JUNCTION     0.64     0.93     6.76     0  03:02        0.93
  WS02004407           JUNCTION     0.61     0.88     6.68     0  03:02        0.88
  WS02004409           JUNCTION     0.59     0.85     6.62     0  03:01        0.84
  WS02004410           JUNCTION     0.56     0.80     6.52     0  03:03        0.80
  WS02004411           JUNCTION     0.52     0.75     6.43     0  03:03        0.75
  WS02004412           JUNCTION     0.46     0.67     6.31     0  03:02        0.66
  WS02004413           JUNCTION     0.48     0.71     6.18     0  03:02        0.70
  WS02004997           JUNCTION     5.89     6.69     8.30     0  02:46        6.69
  WS02005192           JUNCTION     0.39     2.21    10.08     0  02:47        1.03
  WS02005193           JUNCTION     0.42     2.79    10.61     0  02:47        0.77
  WS02005196           JUNCTION     0.40     1.85     9.70     0  02:48        1.11
  WS02006109           JUNCTION     0.63     0.92     7.54     0  03:01        0.92
  WS02006110           JUNCTION     0.57     0.80     7.40     0  03:01        0.80
  WS02006111           JUNCTION     0.33     0.51     7.09     0  03:01        0.51
  WS02006112           JUNCTION     0.61     0.90     7.02     0  03:02        0.90
  WS02006113           JUNCTION     0.47     0.67     7.26     0  03:01        0.67
  WS02006115           JUNCTION     0.57     0.87     6.97     0  03:02        0.87
  WS02006116           JUNCTION     0.60     0.90     6.94     0  03:03        0.90
  WS02006183           JUNCTION     0.00     0.00     0.00     0  00:00        0.00
  WS02006228           JUNCTION     0.68     1.01     7.66     0  03:01        1.00
  WS02006229           JUNCTION     0.66     1.01     7.70     0  03:01        1.01
  WS02006230           JUNCTION     0.69     1.09     7.84     0  03:01        1.09
  WS02006231           JUNCTION     0.64     1.07     7.97     0  03:01        1.07
  WS02006232           JUNCTION     0.62     1.06     8.09     0  03:00        1.06
  WS02006234           JUNCTION     0.61     1.04     8.20     0  03:00        1.04
  WS02006235           JUNCTION     0.67     1.11     8.28     0  03:00        1.11
  WS02006238           JUNCTION     0.68     1.12     8.30     0  03:00        1.12
  WS02006239           JUNCTION     0.67     1.30     8.51     0  02:45        1.11
  WS02006242           JUNCTION     0.64     1.13     8.43     0  02:45        1.04
  WS02006240           JUNCTION     0.62     1.28     8.57     0  02:45        1.04
  WS02006243           JUNCTION     0.56     1.05     8.47     0  02:46        0.94
  WS02006245           JUNCTION     0.53     1.04     8.53     0  02:46        0.88
  WS02006247           JUNCTION     0.54     1.04     8.55     0  02:46        0.87
  WS02006248           JUNCTION     0.48     0.79     8.38     0  03:01        0.79
  WS02006249           JUNCTION     0.51     1.09     8.69     0  02:48        0.83
  WS02006251           JUNCTION     0.50     2.08     9.75     0  02:48        0.87
  WS02006253           JUNCTION     0.42     2.57    10.37     0  02:48        0.79
  WS02618401           JUNCTION     0.00     0.00     0.00     0  00:00        0.00
  WS8802               JUNCTION     0.00     0.00     4.38     0  00:00        0.00
  WSA1649              JUNCTION     0.00     0.00     0.00     0  00:00        0.00
  WSF200               JUNCTION     0.31     0.51     5.61     0  03:04        0.47
  XR-Inflow            JUNCTION     5.76     6.55     8.36     0  01:48        6.55
  WS02004114           JUNCTION     5.85     6.66     8.26     0  02:48        6.65
  outfall-2            OUTFALL      0.00     0.00     7.00     0  00:00        0.00
  outfall-5            OUTFALL      0.08     0.19     7.86     0  03:01        0.19
  outfall-14           OUTFALL      0.00     0.00     7.66     0  00:00        0.00
  outfall-16           OUTFALL      0.00     0.00     8.39     0  00:00        0.00
  12                   OUTFALL      0.43     0.60     0.60     0  03:04        0.60
  XR-storage           STORAGE      6.85     7.72     8.22     0  01:23        7.72
  CC-storage           STORAGE      1.64     5.63     8.81     0  02:23        5.63
  JK-storage           STORAGE      1.34     4.80     7.80     0  02:20        4.80
  
  
  *******************
  Node Inflow Summary
  *******************
  
  -------------------------------------------------------------------------------------------------
                                  Maximum  Maximum                  Lateral       Total        Flow
                                  Lateral    Total  Time of Max      Inflow      Inflow     Balance
                                   Inflow   Inflow   Occurrence      Volume      Volume       Error
  Node                 Type           MLD      MLD  days hr:min    10^6 ltr    10^6 ltr     Percent
  -------------------------------------------------------------------------------------------------
  WS01000070           JUNCTION      0.00     0.00     0  00:00           0           0       0.000 ltr
  WS01000323           JUNCTION      0.00     0.00     0  00:00           0           0       0.000 ltr
  WS01000533           JUNCTION      0.00     0.00     0  00:00           0           0       0.000 ltr
  WS01005172           JUNCTION      0.00     0.00     0  00:00           0           0       0.000 ltr
  WS01005181           JUNCTION      0.00     0.00     0  00:00           0           0       0.000 ltr
  WS01009841           JUNCTION      0.00     0.00     0  00:00           0           0       0.000 ltr
  WS02000078           JUNCTION      0.00     0.00     0  00:00           0           0       0.000 ltr
  WS02000112           JUNCTION      0.00     0.00     0  00:00           0           0       0.000 ltr
  WS02000136           JUNCTION      0.00     0.00     0  00:00           0           0       0.000 ltr
  WS02001211           JUNCTION      0.25    44.08     0  03:06      0.0407        4.69       0.569
  WS02001212           JUNCTION      0.21    46.87     0  03:07      0.0346         4.7       0.325
  WS02001213           JUNCTION      0.30    57.26     0  03:31      0.0489        4.73       0.433
  WS02003059           JUNCTION      0.23    49.98     0  03:08      0.0378        4.75       0.579
  WS02003060           JUNCTION      0.16   171.45     0  03:02      0.0252        12.1       0.340
  WS02003066           JUNCTION      0.08   157.67     0  03:02      0.0122        7.38       0.143
  WS02003067           JUNCTION      0.26   125.77     0  03:02      0.0395        7.38       0.163
  WS02003071           JUNCTION      0.35   163.86     0  03:08      0.0538        12.2       0.364
  WS02003072           JUNCTION      0.24   167.25     0  03:03      0.0382        12.2       0.241
  WS02003073           JUNCTION      0.07   190.55     0  03:03     0.00978          13       0.224
  WS02003076           JUNCTION      0.72   200.41     0  03:09        0.12        13.1       0.139
  WS02003077           JUNCTION      0.04    17.09     0  03:03      0.0059       0.917       0.121
  WS02003078           JUNCTION      0.03    19.32     0  03:03     0.00419       0.911      -0.015
  WS02003079           JUNCTION      0.04    16.67     0  03:02     0.00561       0.909       0.254
  WS02003093           JUNCTION      0.02     0.07     0  03:00     0.00306     0.00378       7.076
  WS02003094           JUNCTION      9.95     9.95     0  03:01       0.516        0.52       0.821
  WS02003098           JUNCTION      0.02     9.75     0  03:01     0.00293       0.518       0.542
  WS02003099           JUNCTION      0.07     9.62     0  03:02      0.0109       0.526       1.097
  WS02003102           JUNCTION      7.74    16.86     0  03:01       0.386       0.906       0.557
  WS02003103           JUNCTION      0.02    16.70     0  03:01     0.00239       0.903       0.391
  WS02003104           JUNCTION      0.02    16.66     0  03:02     0.00302       0.903       0.333
  WS02003106           JUNCTION      0.05    16.67     0  03:02     0.00727       0.907       0.407
  WS02004050           JUNCTION      0.72   222.95     0  03:12       0.119        13.2       0.520
  WS02004053           JUNCTION      0.00     0.00     0  00:00           0           0       0.000 ltr
  WS02004136           JUNCTION      0.44    32.92     0  01:40      0.0703        4.61       0.066
  WS02004139           JUNCTION      0.38    39.53     0  00:01      0.0619        4.67       0.375
  WS02004401           JUNCTION      0.05    86.38     0  03:02     0.00897        5.42       0.184
  WS02004402           JUNCTION      0.22    86.62     0  03:03      0.0335        5.44       0.172
  WS02004403           JUNCTION      0.23    86.97     0  03:03      0.0349        5.47       0.153
  WS02004404           JUNCTION      0.24    87.28     0  03:03      0.0365         5.5       0.138
  WS02004405           JUNCTION      5.32    91.81     0  03:03       0.268        5.76       0.196
  WS02004406           JUNCTION     12.61   103.78     0  03:03       0.712        6.46       0.274
  WS02004407           JUNCTION      0.11   103.96     0  03:03      0.0171        6.46       0.245
  WS02004409           JUNCTION      7.92   111.39     0  03:02       0.437        6.88       0.205
  WS02004410           JUNCTION      0.15   111.67     0  03:04      0.0226        6.89       0.204
  WS02004411           JUNCTION      0.25   112.72     0  03:03      0.0379        6.91       0.179
  WS02004412           JUNCTION      8.84   121.07     0  03:03       0.449        7.35       0.143
  WS02004413           JUNCTION      0.11   122.04     0  03:03      0.0172        7.35       0.139
  WS02004997           JUNCTION      0.42    63.60     0  02:46      0.0693        7.92       0.520
  WS02005192           JUNCTION      8.93     9.10     0  02:47       0.457       0.457       0.129
  WS02005193           JUNCTION      0.09    16.50     0  02:47      0.0146       0.498       0.192
  WS02005196           JUNCTION      0.12    10.77     0  02:47       0.019       0.479       0.294
  WS02006109           JUNCTION      0.08    77.44     0  03:01      0.0135        4.88       0.237
  WS02006110           JUNCTION      0.08    77.52     0  03:01      0.0132        4.88       0.222
  WS02006111           JUNCTION      0.24    86.58     0  03:01      0.0366        5.37       0.084
  WS02006112           JUNCTION      0.18    86.53     0  03:01      0.0273        5.39       0.195
  WS02006113           JUNCTION      9.13    86.50     0  03:01       0.473        5.34       0.147
  WS02006115           JUNCTION      0.08    86.52     0  03:01      0.0134         5.4       0.196
  WS02006116           JUNCTION      0.24    86.42     0  03:02       0.036        5.42       0.190
  WS02006183           JUNCTION      0.00     0.00     0  00:00           0           0       0.000 ltr
  WS02006228           JUNCTION     16.77    77.36     0  03:01       0.961        4.87       0.175
  WS02006229           JUNCTION      0.13    61.73     0  02:50        0.02        3.92       0.178
  WS02006230           JUNCTION      0.07    61.67     0  02:50      0.0116         3.9       0.173
  WS02006231           JUNCTION      0.13    61.60     0  02:50      0.0205         3.9       0.077
  WS02006232           JUNCTION      6.46    61.47     0  02:50       0.327        3.88       0.082
  WS02006234           JUNCTION      0.14    56.30     0  02:50      0.0216        3.55       0.078
  WS02006235           JUNCTION      0.14    56.17     0  02:50      0.0223        3.53       0.052
  WS02006238           JUNCTION      0.15    56.05     0  02:50      0.0235        3.51       0.077
  WS02006239           JUNCTION      0.11    34.75     0  03:30      0.0174        2.02       0.218
  WS02006242           JUNCTION      0.08    33.40     0  03:29      0.0129           2       0.278
  WS02006240           JUNCTION      0.06    33.98     0  03:30     0.00992        2.01       0.185
  WS02006243           JUNCTION      0.17    34.60     0  02:45      0.0269        1.99       0.170
  WS02006245           JUNCTION      0.07    35.95     0  02:45      0.0113        1.97       0.142
  WS02006247           JUNCTION      7.15    37.31     0  02:45       0.406        1.96       0.148
  WS02006248           JUNCTION      0.12    47.27     0  03:01      0.0192        2.24       0.064
  WS02006249           JUNCTION      0.19    47.16     0  03:01      0.0286        2.22       0.105
  WS02006251           JUNCTION      3.22    47.00     0  03:01       0.165         2.2       0.086
  WS02006253           JUNCTION      0.11    43.78     0  03:01      0.0173        2.04       0.033
  WS02618401           JUNCTION      0.00     0.00     0  00:00           0           0       0.000 ltr
  WS8802               JUNCTION      0.00     0.00     0  00:00           0           0       0.000 ltr
  WSA1649              JUNCTION      0.00     0.00     0  00:00           0           0       0.000 ltr
  WSF200               JUNCTION      0.14   145.65     0  03:04      0.0216         7.4       0.002
  XR-Inflow            JUNCTION    235.79   235.79     0  03:01        15.6        15.6       0.171
  WS02004114           JUNCTION      0.57    64.14     0  02:48      0.0916        7.97       0.336
  outfall-2            OUTFALL       0.00     0.00     0  00:00           0           0       0.000 ltr
  outfall-5            OUTFALL       0.00    35.71     0  03:01           0       0.684       0.000
  outfall-14           OUTFALL       0.00     0.00     0  00:00           0           0       0.000 ltr
  outfall-16           OUTFALL       0.00     0.00     0  00:00           0           0       0.000 ltr
  12                   OUTFALL       0.00   187.40     0  03:04           0        13.2       0.000
  XR-storage           STORAGE       0.00    64.15     0  02:46           0        7.95      -0.706
  CC-storage           STORAGE      27.25    27.25     0  03:01        1.61        1.61     -10.728
  JK-storage           STORAGE      27.89    27.89     0  03:01        1.56        1.56     -11.783
  
  
  **********************
  Node Surcharge Summary
  **********************
  
  Surcharging occurs when water rises above the top of the highest conduit.
  ---------------------------------------------------------------------
                                               Max. Height   Min. Depth
                                   Hours       Above Crown    Below Rim
  Node                 Type      Surcharged         Meters       Meters
  ---------------------------------------------------------------------
  WS01000070           JUNCTION        4.00          0.000        0.000
  WS01000323           JUNCTION        4.00          0.000        0.000
  WS01000533           JUNCTION        4.00          0.000        2.147
  WS01005172           JUNCTION        4.00          0.000        0.000
  WS01005181           JUNCTION        4.00          0.000        0.000
  WS01009841           JUNCTION        4.00          0.000        0.000
  WS02000078           JUNCTION        4.00          0.000        0.000
  WS02000112           JUNCTION        4.00          0.000        0.000
  WS02000136           JUNCTION        4.00          0.000        0.000
  WS02004053           JUNCTION        4.00          0.000        0.000
  WS02004997           JUNCTION        3.07          5.793        0.207
  WS02005192           JUNCTION        0.45          1.611        1.208
  WS02005193           JUNCTION        0.50          2.194        0.423
  WS02005196           JUNCTION        0.47          1.250        1.456
  WS02006109           JUNCTION        0.61          0.118        1.720
  WS02006110           JUNCTION        0.02          0.002        1.843
  WS02006183           JUNCTION        4.00          0.000        0.000
  WS02006228           JUNCTION        0.72          0.206        2.025
  WS02006229           JUNCTION        0.70          0.207        2.247
  WS02006231           JUNCTION        0.82          0.374        1.169
  WS02006232           JUNCTION        0.76          0.363        1.126
  WS02006234           JUNCTION        0.71          0.345        0.912
  WS02006235           JUNCTION        0.74          0.412        0.882
  WS02006238           JUNCTION        0.75          0.425        1.009
  WS02006239           JUNCTION        0.75          0.598        0.731
  WS02006242           JUNCTION        0.74          0.426        0.423
  WS02006240           JUNCTION        0.73          0.581        0.822
  WS02006243           JUNCTION        0.70          0.348        0.432
  WS02006245           JUNCTION        0.67          0.343        0.512
  WS02006247           JUNCTION        0.67          0.344        0.416
  WS02006249           JUNCTION        0.61          0.388        0.000
  WS02006251           JUNCTION        0.56          1.376        0.134
  WS02006253           JUNCTION        0.41          1.873        0.581
  WS02618401           JUNCTION        4.00          0.000        0.000
  WS8802               JUNCTION        4.00          0.000        4.942
  WSA1649              JUNCTION        4.00          0.000        0.000
  XR-Inflow            JUNCTION        3.04          5.650        0.000
  WS02004114           JUNCTION        3.08          5.755        0.760
  
  
  *********************
  Node Flooding Summary
  *********************
  
  Flooding refers to all water that overflows a node, whether it ponds or not.
  --------------------------------------------------------------------------
                                                             Total   Maximum
                                 Maximum   Time of Max       Flood    Ponded
                        Hours       Rate    Occurrence      Volume     Depth
  Node                 Flooded       MLD   days hr:min    10^6 ltr    Meters
  --------------------------------------------------------------------------
  WS02006249              0.01      3.54      0  02:48       0.000     0.000
  XR-Inflow               2.18    172.62      0  03:01       7.686     0.000
  XR-storage              2.62     39.67      0  01:30       3.401     0.000
  CC-storage              0.31     16.87      0  02:30       0.145     0.000
  JK-storage              0.35     16.97      0  02:30       0.169     0.000
  
  
  **********************
  Storage Volume Summary
  **********************
  
  --------------------------------------------------------------------------------------------------
                         Average     Avg  Evap Exfil       Maximum     Max    Time of Max    Maximum
                          Volume    Pcnt  Pcnt  Pcnt        Volume    Pcnt     Occurrence    Outflow
  Storage Unit           1000 m3    Full  Loss  Loss       1000 m3    Full    days hr:min        MLD
  --------------------------------------------------------------------------------------------------
  XR-storage               0.056      89     0     0         0.063     100       0  01:23      32.48
  CC-storage               0.046      29     0     0         0.159     100       0  02:23      34.56
  JK-storage               0.038      28     0     0         0.136     100       0  02:20      34.56
  
  
  ***********************
  Outfall Loading Summary
  ***********************
  
  ---------------------------------------------------------------------------------------------------------------------------------
                         Flow       Avg       Max       Total         Total         Total         Total         Total         Total
                         Freq      Flow      Flow      Volume           COD         NH3-N            TN            TP            SS
  Outfall Node           Pcnt       MLD       MLD    10^6 ltr            kg            kg            kg            kg            kg
  ---------------------------------------------------------------------------------------------------------------------------------
  outfall-2              0.00      0.00      0.00       0.000         0.000         0.000         0.000         0.000         0.000
  outfall-5             48.67     25.58     35.71       0.684       129.714         0.000         0.000         0.000         0.000
  outfall-14             0.00      0.00      0.00       0.000         0.000         0.000         0.000         0.000         0.000
  outfall-16             0.00      0.00      0.00       0.000         0.000         0.000         0.000         0.000         0.000
  12                    99.99    112.72    187.40      13.171      2317.315         0.000         0.000         0.000         0.000
  ---------------------------------------------------------------------------------------------------------------------------------
  System                29.73    138.30    219.89      13.855      2447.029         0.000         0.000         0.000         0.000
  
  
  ********************
  Link Flow Summary
  ********************
  
  -----------------------------------------------------------------------------
                                 Maximum  Time of Max   Maximum    Max/    Max/
                                  |Flow|   Occurrence   |Veloc|    Full    Full
  Link                 Type          MLD  days hr:min     m/sec    Flow   Depth
  -----------------------------------------------------------------------------
  WSL49                CONDUIT    199.69     0  03:09      2.74    2.48    0.84
  WSL1465              CONDUIT     50.82     0  03:08      1.99    0.46    0.92
  WSL1472              CONDUIT    167.04     0  03:03      2.18    1.90    0.82
  WSL1475              CONDUIT    222.23     0  03:12      3.39    2.37    0.54
  WSL1476              CONDUIT     46.19     0  03:02      1.51    0.22    0.75
  WSL1477              CONDUIT     19.30     0  03:03      2.55    0.76    0.35
  WSL1490              CONDUIT     46.66     0  03:07      1.60    0.75    0.71
  WSL1491              CONDUIT     56.98     0  03:31      1.86    0.33    0.78
  WSL1492              CONDUIT     49.75     0  03:08      1.71    0.77    0.83
  WSL1507              CONDUIT      0.18     0  03:02      0.11    0.00    0.26
  WSL1508              CONDUIT      9.74     0  03:01      0.90    0.27    0.30
  WSL1512              CONDUIT      9.56     0  03:02      0.62    0.07    0.28
  WSL1513              CONDUIT      9.78     0  03:03      0.56    0.57    0.43
  WSL1515              CONDUIT    157.60     0  03:02      3.18    1.54    0.51
  WSL1516              CONDUIT     17.06     0  03:03      4.54    0.06    0.41
  WSL1518              CONDUIT     16.69     0  03:01      0.94    0.33    0.43
  WSL1519              CONDUIT     16.63     0  03:02      0.93    0.41    0.43
  WSL1521              CONDUIT     16.65     0  03:02      0.99    0.48    0.41
  WSL1543              CONDUIT     16.64     0  03:02      0.91    0.52    0.44
  WSL1961              CONDUIT     39.15     0  00:01      3.75    0.08    0.39
  WSL1964              CONDUIT     43.85     0  03:06      1.79    0.24    0.52
  WSL2010              CONDUIT     86.79     0  03:03      1.37    1.11    0.91
  WSL2011              CONDUIT     87.09     0  03:03      1.33    0.56    0.94
  WSL2012              CONDUIT     87.33     0  03:03      1.30    1.33    0.97
  WSL2013              CONDUIT     91.90     0  03:03      1.38    2.28    0.95
  WSL2014              CONDUIT    103.86     0  03:03      1.61    1.66    0.90
  WSL2015              CONDUIT    103.92     0  03:04      1.69    1.39    0.86
  WSL2016              CONDUIT    111.54     0  03:04      1.89    1.28    0.82
  WSL2017              CONDUIT    112.52     0  03:03      2.03    1.37    0.77
  WSL2018              CONDUIT    121.94     0  03:03      2.56    0.73    0.68
  WSL2019              CONDUIT    125.56     0  03:02      2.52    0.74    0.74
  WSL2028              CONDUIT     86.44     0  03:03      1.38    0.92    0.91
  WSL2029              CONDUIT    113.49     0  03:03      2.28    1.44    0.70
  WSL2038              CONDUIT      8.93     0  03:01      0.75    0.44    1.00
  WSL2039              CONDUIT      9.12     0  03:01      1.11    0.47    1.00
  WSL2041              CONDUIT      9.95     0  02:47      0.84    0.49    1.00
  WSL2294              CONDUIT     77.45     0  03:01      1.78    2.60    1.00
  WSL2295              CONDUIT     77.54     0  03:01      1.90    3.49    0.92
  WSL2296              CONDUIT     86.38     0  03:01      2.27    0.49    0.82
  WSL2297              CONDUIT     86.44     0  03:01      1.46    1.66    0.88
  WSL2298              CONDUIT     86.38     0  03:01      2.67    3.98    0.74
  WSL2301              CONDUIT     86.23     0  03:02      1.46    0.79    0.88
  WSL2302              CONDUIT     86.33     0  03:02      1.41    1.06    0.90
  WSL2441              CONDUIT     77.36     0  03:01      1.78    1.98    1.00
  WSL2442              CONDUIT     61.61     0  02:50      1.85    1.58    1.00
  WSL2443              CONDUIT     61.60     0  02:50      1.85    0.96    1.00
  WSL2444              CONDUIT     61.48     0  02:50      1.85    0.98    1.00
  WSL2446              CONDUIT     56.31     0  02:50      1.82    0.97    1.00
  WSL2447              CONDUIT     56.18     0  02:50      1.71    2.89    1.00
  WSL2448              CONDUIT     56.04     0  02:50      1.69    1.58    1.00
  WSL2449              CONDUIT     35.27     0  03:30      1.13    1.23    1.00
  WSL2450              CONDUIT     34.65     0  03:30      1.10    0.72    1.00
  WSL2451              CONDUIT     33.92     0  03:30      1.09    2.21    1.00
  WSL2452              CONDUIT     33.33     0  03:29      1.15    0.64    1.00
  WSL2454              CONDUIT     34.45     0  02:45      1.35    0.80    1.00
  WSL2478              CONDUIT     35.88     0  02:45      1.34    1.27    1.00
  WSL2479              CONDUIT     32.40     0  02:45      1.21    0.62    1.00
  WSL2480              CONDUIT     47.16     0  03:01      1.42    2.18    1.00
  WSL2482              CONDUIT     47.01     0  03:01      1.41    1.22    1.00
  WSL2484              CONDUIT     43.79     0  03:01      1.39    0.62    1.00
  WSL2493              CONDUIT     61.72     0  02:50      1.42    1.04    1.00
  WSL2867              CONDUIT    145.54     0  03:04      4.29    0.30    0.39
  WSL2868              CONDUIT    134.75     0  03:02      2.29    0.26    0.59
  WSL348               CONDUIT     63.19     0  02:46      1.88    0.58    1.00
  WSL175               CONDUIT     63.60     0  02:48      2.43    2.14    1.00
  WSL1467              CONDUIT    163.57     0  03:08      2.05    0.87    0.84
  WSL1473              CONDUIT    173.18     0  03:03      2.36    0.71    0.84
  XRpipe               CONDUIT     64.15     0  02:46      8.80    0.16    1.00
  8                    CONDUIT     35.71     0  03:01      6.88    0.47    0.48
  19                   CONDUIT      0.00     0  00:00      0.00    0.00    0.00
  17                   CONDUIT      0.00     0  00:00      0.00    0.00    0.00
  4                    CONDUIT      0.00     0  00:00      0.00    0.00    0.00
  2                    CONDUIT    187.40     0  03:04      4.38    0.68    0.61
  XR-Pump-1            PUMP         8.12     0  00:01              1.00
  XR-Pump-3            PUMP         8.12     0  00:01              1.00
  XR-Pump-2            PUMP         8.12     0  00:01              1.00
  XR-Pump-4            PUMP         8.12     0  00:01              1.00
  CC-Pump-1            PUMP        17.28     0  02:50              1.00
  CC-Pump-2            PUMP        17.28     0  01:40              1.00
  JK-Pump-1            PUMP        17.28     0  02:50              1.00
  JK-Pump-2            PUMP        17.28     0  01:40              1.00
  
  
  ***************************
  Flow Classification Summary
  ***************************
  
  -------------------------------------------------------------------------------------
                      Adjusted    ---------- Fraction of Time in Flow Class ---------- 
                       /Actual         Up    Down  Sub   Sup   Up    Down  Norm  Inlet 
  Conduit               Length    Dry  Dry   Dry   Crit  Crit  Crit  Crit  Ltd   Ctrl  
  -------------------------------------------------------------------------------------
  WSL49                   1.00   0.00  0.00  0.00  0.99  0.01  0.00  0.00  0.00  0.00
  WSL1465                 1.00   0.00  0.00  0.00  1.00  0.00  0.00  0.00  0.06  0.00
  WSL1472                 1.00   0.00  0.00  0.00  1.00  0.00  0.00  0.00  0.00  0.00
  WSL1475                 1.00   0.00  0.00  0.00  0.17  0.83  0.00  0.00  0.01  0.00
  WSL1476                 1.00   0.00  0.00  0.00  1.00  0.00  0.00  0.00  0.97  0.00
  WSL1477                 1.00   0.00  0.00  0.00  0.00  1.00  0.00  0.00  0.42  0.00
  WSL1490                 1.00   0.00  0.00  0.00  1.00  0.00  0.00  0.00  0.01  0.00
  WSL1491                 1.00   0.00  0.00  0.00  1.00  0.00  0.00  0.00  0.08  0.00
  WSL1492                 1.00   0.00  0.00  0.00  1.00  0.00  0.00  0.00  0.03  0.00
  WSL1507                 1.00   0.00  0.00  0.00  1.00  0.00  0.00  0.00  0.39  0.00
  WSL1508                 1.00   0.00  0.00  0.00  1.00  0.00  0.00  0.00  0.00  0.00
  WSL1512                 1.00   0.00  0.00  0.00  1.00  0.00  0.00  0.00  0.85  0.00
  WSL1513                 1.00   0.00  0.00  0.00  1.00  0.00  0.00  0.00  0.00  0.00
  WSL1515                 1.00   0.00  0.00  0.00  0.15  0.85  0.00  0.00  0.05  0.00
  WSL1516                 1.00   0.00  0.00  0.00  0.00  1.00  0.00  0.00  0.98  0.00
  WSL1518                 1.00   0.00  0.00  0.00  1.00  0.00  0.00  0.00  0.36  0.00
  WSL1519                 1.00   0.00  0.00  0.00  1.00  0.00  0.00  0.00  0.30  0.00
  WSL1521                 1.00   0.00  0.00  0.00  1.00  0.00  0.00  0.00  0.02  0.00
  WSL1543                 1.00   0.00  0.00  0.00  1.00  0.00  0.00  0.00  0.02  0.00
  WSL1961                 1.00   0.00  0.00  0.00  0.15  0.85  0.00  0.00  0.99  0.00
  WSL1964                 1.00   0.00  0.00  0.00  1.00  0.00  0.00  0.00  0.10  0.00
  WSL2010                 1.00   0.00  0.00  0.00  1.00  0.00  0.00  0.00  0.01  0.00
  WSL2011                 1.00   0.00  0.00  0.00  1.00  0.00  0.00  0.00  0.18  0.00
  WSL2012                 1.00   0.00  0.00  0.00  1.00  0.00  0.00  0.00  0.01  0.00
  WSL2013                 1.00   0.00  0.00  0.00  1.00  0.00  0.00  0.00  0.00  0.00
  WSL2014                 1.00   0.00  0.00  0.00  1.00  0.00  0.00  0.00  0.00  0.00
  WSL2015                 1.00   0.00  0.00  0.00  1.00  0.00  0.00  0.00  0.02  0.00
  WSL2016                 1.00   0.00  0.00  0.00  1.00  0.00  0.00  0.00  0.04  0.00
  WSL2017                 1.00   0.00  0.00  0.00  1.00  0.00  0.00  0.00  0.04  0.00
  WSL2018                 1.00   0.00  0.00  0.00  0.07  0.93  0.00  0.00  0.06  0.00
  WSL2019                 1.00   0.00  0.00  0.00  0.73  0.27  0.00  0.00  0.11  0.00
  WSL2028                 1.00   0.00  0.00  0.00  1.00  0.00  0.00  0.00  0.06  0.00
  WSL2029                 1.00   0.00  0.00  0.00  0.82  0.18  0.00  0.00  0.00  0.00
  WSL2038                 1.00   0.00  0.00  0.00  1.00  0.00  0.00  0.00  0.02  0.00
  WSL2039                 1.00   0.00  0.00  0.00  0.93  0.07  0.00  0.00  0.01  0.00
  WSL2041                 1.00   0.00  0.00  0.00  1.00  0.00  0.00  0.00  0.16  0.00
  WSL2294                 1.00   0.00  0.00  0.00  1.00  0.00  0.00  0.00  0.00  0.00
  WSL2295                 1.00   0.00  0.00  0.00  1.00  0.00  0.00  0.00  0.00  0.00
  WSL2296                 1.00   0.00  0.00  0.00  0.63  0.37  0.00  0.00  0.46  0.00
  WSL2297                 1.00   0.00  0.00  0.00  1.00  0.00  0.00  0.00  0.00  0.00
  WSL2298                 1.00   0.00  0.00  0.00  0.04  0.96  0.00  0.00  0.00  0.00
  WSL2301                 1.00   0.00  0.00  0.00  1.00  0.00  0.00  0.00  0.09  0.00
  WSL2302                 1.00   0.00  0.00  0.00  1.00  0.00  0.00  0.00  0.02  0.00
  WSL2441                 1.00   0.00  0.00  0.00  1.00  0.00  0.00  0.00  0.01  0.00
  WSL2442                 1.00   0.00  0.00  0.00  1.00  0.00  0.00  0.00  0.11  0.00
  WSL2443                 1.00   0.00  0.00  0.00  1.00  0.00  0.00  0.00  0.33  0.00
  WSL2444                 1.00   0.00  0.00  0.00  0.69  0.31  0.00  0.00  0.24  0.00
  WSL2446                 1.00   0.00  0.00  0.00  0.78  0.22  0.00  0.00  0.17  0.00
  WSL2447                 1.00   0.00  0.00  0.00  1.00  0.00  0.00  0.00  0.00  0.00
  WSL2448                 1.00   0.00  0.00  0.00  1.00  0.00  0.00  0.00  0.01  0.00
  WSL2449                 1.00   0.00  0.00  0.00  1.00  0.00  0.00  0.00  0.05  0.00
  WSL2450                 1.00   0.00  0.00  0.00  1.00  0.00  0.00  0.00  0.32  0.00
  WSL2451                 1.00   0.00  0.00  0.00  1.00  0.00  0.00  0.00  0.00  0.00
  WSL2452                 1.00   0.00  0.00  0.00  1.00  0.00  0.00  0.00  0.39  0.00
  WSL2454                 1.00   0.00  0.00  0.00  1.00  0.00  0.00  0.00  0.06  0.00
  WSL2478                 1.00   0.00  0.00  0.00  1.00  0.00  0.00  0.00  0.00  0.00
  WSL2479                 1.00   0.00  0.00  0.00  1.00  0.00  0.00  0.00  0.34  0.00
  WSL2480                 1.00   0.00  0.00  0.00  1.00  0.00  0.00  0.00  0.00  0.00
  WSL2482                 1.00   0.00  0.00  0.00  1.00  0.00  0.00  0.00  0.43  0.00
  WSL2484                 1.00   0.00  0.00  0.00  0.99  0.01  0.00  0.00  0.51  0.00
  WSL2493                 1.00   0.00  0.00  0.00  1.00  0.00  0.00  0.00  0.05  0.00
  WSL2867                 1.00   0.00  0.00  0.00  0.00  1.00  0.00  0.00  0.21  0.00
  WSL2868                 1.00   0.00  0.00  0.00  0.93  0.07  0.00  0.00  0.62  0.00
  WSL348                  1.00   0.00  0.00  0.00  0.98  0.02  0.00  0.00  0.01  0.00
  WSL175                  1.00   0.00  0.00  0.00  0.93  0.07  0.00  0.00  0.01  0.00
  WSL1467                 1.00   0.00  0.00  0.00  1.00  0.00  0.00  0.00  0.12  0.00
  WSL1473                 1.00   0.00  0.00  0.00  1.00  0.00  0.00  0.00  0.04  0.00
  XRpipe                  1.00   0.00  0.00  0.00  0.94  0.06  0.00  0.00  0.04  0.00
  8                       1.00   0.51  0.00  0.00  0.00  0.49  0.00  0.00  0.07  0.00
  19                      1.00   1.00  0.00  0.00  0.00  0.00  0.00  0.00  0.00  0.00
  17                      1.00   1.00  0.00  0.00  0.00  0.00  0.00  0.00  0.00  0.00
  4                       1.00   1.00  0.00  0.00  0.00  0.00  0.00  0.00  0.00  0.00
  2                       1.00   0.00  0.00  0.00  0.00  1.00  0.00  0.00  0.31  0.00
  
  
  *************************
  Conduit Surcharge Summary
  *************************
  
  ----------------------------------------------------------------------------
                                                           Hours        Hours 
                         --------- Hours Full --------   Above Full   Capacity
  Conduit                Both Ends  Upstream  Dnstream   Normal Flow   Limited
  ----------------------------------------------------------------------------
  WSL49                       0.01      0.01      0.01      2.08         0.01
  WSL1472                     0.01      0.01      0.01      1.53         0.01
  WSL1475                     0.01      0.01      0.01      1.62         0.01
  WSL1476                     0.01      0.01      0.59      0.01         0.01
  WSL1515                     0.01      0.01      0.01      0.45         0.01
  WSL2010                     0.01      0.01      0.01      0.50         0.01
  WSL2012                     0.01      0.01      0.01      0.81         0.01
  WSL2013                     0.01      0.01      0.01      1.55         0.01
  WSL2014                     0.01      0.01      0.01      0.97         0.01
  WSL2015                     0.01      0.01      0.01      0.84         0.01
  WSL2016                     0.01      0.01      0.01      0.69         0.01
  WSL2017                     0.01      0.01      0.01      0.78         0.01
  WSL2029                     0.01      0.01      0.01      0.84         0.01
  WSL2038                     0.45      0.45      0.47      0.01         0.01
  WSL2039                     0.50      0.50      0.53      0.01         0.01
  WSL2041                     0.47      0.47      0.50      0.01         0.01
  WSL2294                     0.02      0.61      0.02      1.63         0.02
  WSL2295                     0.01      0.02      0.01      1.91         0.01
  WSL2296                     0.01      0.01      0.47      0.01         0.01
  WSL2297                     0.01      0.01      0.01      0.97         0.01
  WSL2298                     0.01      0.01      0.01      2.27         0.01
  WSL2302                     0.01      0.01      0.01      0.38         0.01
  WSL2441                     0.61      0.72      0.61      1.25         0.61
  WSL2442                     0.88      0.90      0.88      1.02         0.88
  WSL2443                     0.82      0.82      0.90      0.01         0.01
  WSL2444                     0.76      0.76      0.82      0.01         0.01
  WSL2446                     0.71      0.71      0.76      0.01         0.01
  WSL2447                     0.71      0.74      0.71      1.62         0.71
  WSL2448                     0.74      0.75      0.74      1.04         0.74
  WSL2449                     0.75      0.75      0.75      0.19         0.12
  WSL2450                     0.73      0.73      0.75      0.01         0.01
  WSL2451                     0.73      0.74      0.73      1.57         0.72
  WSL2452                     0.70      0.70      0.74      0.01         0.01
  WSL2454                     0.67      0.67      0.70      0.01         0.01
  WSL2478                     0.67      0.67      0.67      0.20         0.07
  WSL2479                     0.59      0.59      0.67      0.01         0.01
  WSL2480                     0.59      0.61      0.59      0.86         0.58
  WSL2482                     0.56      0.56      0.61      0.46         0.44
  WSL2484                     0.41      0.41      0.56      0.01         0.01
  WSL2493                     0.70      0.70      0.72      0.43         0.44
  WSL348                      3.04      3.04      3.07      0.01         0.01
  WSL175                      3.07      3.07      3.08      2.69         2.73
  XRpipe                      3.08      3.08      3.45      0.01         0.01
  
  
  ***************
  Pumping Summary
  ***************
  
  ---------------------------------------------------------------------------------------------------------
                                                  Min       Avg       Max     Total     Power    % Time Off
                        Percent   Number of      Flow      Flow      Flow    Volume     Usage    Pump Curve
  Pump                 Utilized   Start-Ups       MLD       MLD       MLD  10^6 ltr     Kw-hr    Low   High
  ---------------------------------------------------------------------------------------------------------
  XR-Pump-1               95.80           3      0.00      7.84      8.12     1.178      7.21    0.0    0.0
  XR-Pump-3               87.46           3      0.00      7.80      8.12     1.065      6.12    0.0    0.0
  XR-Pump-2               91.64           3      0.00      7.83      8.12     1.121      7.04    0.0    0.0
  XR-Pump-4               95.80           3      0.00      7.84      8.12     1.178      7.21    0.0    0.0
  CC-Pump-1               20.83           1      0.00     15.06     17.28     0.467      4.73    0.0    0.0
  CC-Pump-2               58.31           3      0.00     13.87     17.28     1.061     10.21    0.0    0.0
  JK-Pump-1               20.83           1      0.00     15.10     17.28     0.468      5.06    0.0    0.0
  JK-Pump-2               54.16           3      0.00     13.97     17.28     1.007      9.79    0.0    0.0
  
  
  ***************************
  Link Pollutant Load Summary
  ***************************
  
  ------------------------------------------------------------------------------------------
                                 COD         NH3-N            TN            TP            SS
  Link                            kg            kg            kg            kg            kg
  ------------------------------------------------------------------------------------------
  WSL49                     2289.308         0.000         0.000         0.000         0.000
  WSL1465                    731.899         0.000         0.000         0.000         0.000
  WSL1472                   2067.414         0.000         0.000         0.000         0.000
  WSL1475                   2306.596         0.000         0.000         0.000         0.000
  WSL1476                    223.225         0.000         0.000         0.000         0.000
  WSL1477                    221.229         0.000         0.000         0.000         0.000
  WSL1490                    720.895         0.000         0.000         0.000         0.000
  WSL1491                    724.585         0.000         0.000         0.000         0.000
  WSL1492                    729.349         0.000         0.000         0.000         0.000
  WSL1507                      1.050         0.000         0.000         0.000         0.000
  WSL1508                    141.864         0.000         0.000         0.000         0.000
  WSL1512                    141.894         0.000         0.000         0.000         0.000
  WSL1513                    142.904         0.000         0.000         0.000         0.000
  WSL1515                   1331.901         0.000         0.000         0.000         0.000
  WSL1516                    221.909         0.000         0.000         0.000         0.000
  WSL1518                    219.913         0.000         0.000         0.000         0.000
  WSL1519                    219.932         0.000         0.000         0.000         0.000
  WSL1521                    220.645         0.000         0.000         0.000         0.000
  WSL1543                    219.773         0.000         0.000         0.000         0.000
  WSL1961                    710.158         0.000         0.000         0.000         0.000
  WSL1964                    717.534         0.000         0.000         0.000         0.000
  WSL2010                    818.138         0.000         0.000         0.000         0.000
  WSL2011                    822.238         0.000         0.000         0.000         0.000
  WSL2012                    826.862         0.000         0.000         0.000         0.000
  WSL2013                    880.472         0.000         0.000         0.000         0.000
  WSL2014                   1117.040         0.000         0.000         0.000         0.000
  WSL2015                   1116.745         0.000         0.000         0.000         0.000
  WSL2016                   1234.115         0.000         0.000         0.000         0.000
  WSL2017                   1235.216         0.000         0.000         0.000         0.000
  WSL2018                   1326.667         0.000         0.000         0.000         0.000
  WSL2019                   1327.656         0.000         0.000         0.000         0.000
  WSL2028                    814.285         0.000         0.000         0.000         0.000
  WSL2029                   1239.290         0.000         0.000         0.000         0.000
  WSL2038                     91.092         0.000         0.000         0.000         0.000
  WSL2039                     98.472         0.000         0.000         0.000         0.000
  WSL2041                     95.416         0.000         0.000         0.000         0.000
  WSL2294                    799.610         0.000         0.000         0.000         0.000
  WSL2295                    799.523         0.000         0.000         0.000         0.000
  WSL2296                    807.588         0.000         0.000         0.000         0.000
  WSL2297                    810.595         0.000         0.000         0.000         0.000
  WSL2298                    802.421         0.000         0.000         0.000         0.000
  WSL2301                    810.640         0.000         0.000         0.000         0.000
  WSL2302                    814.796         0.000         0.000         0.000         0.000
  WSL2441                    799.636         0.000         0.000         0.000         0.000
  WSL2442                    486.555         0.000         0.000         0.000         0.000
  WSL2443                    486.332         0.000         0.000         0.000         0.000
  WSL2444                    483.623         0.000         0.000         0.000         0.000
  WSL2446                    482.092         0.000         0.000         0.000         0.000
  WSL2447                    478.858         0.000         0.000         0.000         0.000
  WSL2448                    475.176         0.000         0.000         0.000         0.000
  WSL2449                    296.831         0.000         0.000         0.000         0.000
  WSL2450                    294.692         0.000         0.000         0.000         0.000
  WSL2451                    293.947         0.000         0.000         0.000         0.000
  WSL2452                    292.759         0.000         0.000         0.000         0.000
  WSL2454                    289.036         0.000         0.000         0.000         0.000
  WSL2478                    287.479         0.000         0.000         0.000         0.000
  WSL2479                    215.046         0.000         0.000         0.000         0.000
  WSL2480                    341.749         0.000         0.000         0.000         0.000
  WSL2482                    338.129         0.000         0.000         0.000         0.000
  WSL2484                    291.917         0.000         0.000         0.000         0.000
  WSL2493                    488.700         0.000         0.000         0.000         0.000
  WSL2867                   1332.077         0.000         0.000         0.000         0.000
  WSL2868                   1336.120         0.000         0.000         0.000         0.000
  WSL348                    1327.726         0.000         0.000         0.000         0.000
  WSL175                    1333.902         0.000         0.000         0.000         0.000
  WSL1467                   2065.236         0.000         0.000         0.000         0.000
  WSL1473                   2068.931         0.000         0.000         0.000         0.000
  XRpipe                    1346.171         0.000         0.000         0.000         0.000
  8                          129.714         0.000         0.000         0.000         0.000
  19                           0.000         0.000         0.000         0.000         0.000
  17                           0.000         0.000         0.000         0.000         0.000
  4                            0.000         0.000         0.000         0.000         0.000
  2                         2317.315         0.000         0.000         0.000         0.000
  XR-Pump-1                  180.672         0.000         0.000         0.000         0.000
  XR-Pump-3                  166.720         0.000         0.000         0.000         0.000
  XR-Pump-2                  171.259         0.000         0.000         0.000         0.000
  XR-Pump-4                  180.672         0.000         0.000         0.000         0.000
  CC-Pump-1                   65.646         0.000         0.000         0.000         0.000
  CC-Pump-2                  127.384         0.000         0.000         0.000         0.000
  JK-Pump-1                   61.724         0.000         0.000         0.000         0.000
  JK-Pump-2                  113.805         0.000         0.000         0.000         0.000
  

  Analysis begun on:  Wed Mar 20 15:02:21 2019
  Analysis ended on:  Wed Mar 20 15:02:22 2019
  Total elapsed time: 00:00:01