
  EPA STORM WATER MANAGEMENT MODEL - VERSION 5.1 (Build 5.2.0.dev1)
  --------------------------------------------------------------

  
  *********************************************************
  NOTE: The summary statistics displayed in this report are
  based on results found at every computational time step,  
  not just on results from each reporting time step.
  *********************************************************
  
  ****************
  Analysis Options
  ****************
  Flow Units ............... MLD
  Process Models:
    Rainfall/Runoff ........ YES
    RDII ................... NO
    Snowmelt ............... NO
    Groundwater ............ NO
    Flow Routing ........... YES
    Ponding Allowed ........ NO
    Water Quality .......... YES
  Infiltration Method ...... GREEN_AMPT
  Flow Routing Method ...... DYNWAVE
  Starting Date ............ 08/28/2015 08:00:00
  Ending Date .............. 08/28/2015 12:00:00
  Antecedent Dry Days ...... 4.0
  Report Time Step ......... 00:01:00
  Wet Time Step ............ 00:01:00
  Dry Time Step ............ 00:01:00
  Routing Time Step ........ 5.00 sec
  Variable Time Step ....... YES
  Maximum Trials ........... 8
  Number of Threads ........ 1
  Head Tolerance ........... 0.001500 m
  
  
  **************************        Volume         Depth
  Runoff Quantity Continuity     hectare-m            mm
  **************************     ---------       -------
  Total Precipitation ......         2.963        10.506
  Evaporation Loss .........         0.000         0.000
  Infiltration Loss ........         1.505         5.336
  Surface Runoff ...........         0.611         2.168
  Final Storage ............         0.848         3.008
  Continuity Error (%) .....        -0.049
  
  
  **************************           COD         NH3-N            TN            TP            SS
  Runoff Quality Continuity             kg            kg            kg            kg            kg
  **************************    ----------    ----------    ----------    ----------    ----------
  Initial Buildup ..........     13074.240         0.000         0.000         0.000         0.000
  Surface Buildup ..........       111.780         0.000         0.000         0.000         0.000
  Wet Deposition ...........         0.000         0.000         0.000         0.000         0.000
  Sweeping Removal .........         0.000         0.000         0.000         0.000         0.000
  Infiltration Loss ........        62.603         0.000         0.000         0.000         0.000
  BMP Removal ..............         0.000         0.000         0.000         0.000         0.000
  Surface Runoff ...........       514.591         0.000         0.000         0.000         0.000
  Remaining Buildup ........     12608.364         0.000         0.000         0.000         0.000
  Continuity Error (%) .....         0.004         0.000         0.000         0.000         0.000
  
  
  **************************        Volume        Volume
  Flow Routing Continuity        hectare-m      10^6 ltr
  **************************     ---------     ---------
  Dry Weather Inflow .......         0.000         0.000
  Wet Weather Inflow .......         0.610         6.097
  Groundwater Inflow .......         0.000         0.000
  RDII Inflow ..............         0.000         0.000
  External Inflow ..........         0.561         5.611
  External Outflow .........         0.818         8.179
  Flooding Loss ............         0.288         2.876
  Evaporation Loss .........         0.000         0.000
  Exfiltration Loss ........         0.000         0.000
  Initial Stored Volume ....         0.000         0.000
  Final Stored Volume ......         0.085         0.854
  Continuity Error (%) .....        -1.719
  
  
  **************************           COD         NH3-N            TN            TP            SS
  Quality Routing Continuity            kg            kg            kg            kg            kg
  **************************    ----------    ----------    ----------    ----------    ----------
  Dry Weather Inflow .......         0.000         0.000         0.000         0.000         0.000
  Wet Weather Inflow .......       513.434         0.000         0.000         0.000         0.000
  Groundwater Inflow .......         0.000         0.000         0.000         0.000         0.000
  RDII Inflow ..............         0.000         0.000         0.000         0.000         0.000
  External Inflow ..........       937.008         0.000         0.000         0.000         0.000
  External Outflow .........       977.683         0.000         0.000         0.000         0.000
  Flooding Loss ............       313.740         0.000         0.000         0.000         0.000
  Exfiltration Loss ........         0.000         0.000         0.000         0.000         0.000
  Mass Reacted .............         0.000         0.000         0.000         0.000         0.000
  Initial Stored Mass ......         0.000         0.000         0.000         0.000         0.000
  Final Stored Mass ........        78.770         0.000         0.000         0.000         0.000
  Continuity Error (%) .....         5.533         0.000         0.000         0.000         0.000
  
  
  *************************
  Highest Continuity Errors
  *************************
  Node WS02003099 (1.30%)
  Node WS02005196 (1.10%)
  Node WS02003094 (1.06%)
  Node WS02005193 (1.03%)
  
  
  ***************************
  Time-Step Critical Elements
  ***************************
  Link WSL2448 (70.66%)
  Link WSL1477 (15.28%)
  Link XRpipe (6.16%)
  
  
  ********************************
  Highest Flow Instability Indexes
  ********************************
  Link WSL1477 (95)
  Link WSL1516 (82)
  Link WSL1515 (20)
  Link WSL2867 (17)
  Link WSL2868 (15)
  
  
  *************************
  Routing Time Step Summary
  *************************
  Minimum Time Step           :     0.92 sec
  Average Time Step           :     2.83 sec
  Maximum Time Step           :     5.00 sec
  Percent in Steady State     :    -0.00
  Average Iterations per Step :     3.08
  Percent Not Converging      :    11.37
  
  
  ***************************
  Subcatchment Runoff Summary
  ***************************
  
  --------------------------------------------------------------------------------------------------------
                            Total      Total      Total      Total      Total       Total     Peak  Runoff
                           Precip      Runon       Evap      Infil     Runoff      Runoff   Runoff   Coeff
  Subcatchment                 mm         mm         mm         mm         mm    10^6 ltr      MLD
  --------------------------------------------------------------------------------------------------------
  1                         10.51       8.44       0.00       7.39       6.78        0.08     1.49   0.358
  2                         10.51       0.00       0.00       6.18       2.81        0.09     1.76   0.267
  3                         10.51       0.00       0.00       6.19       2.71        0.14     2.54   0.258
  4                         10.51       0.00       0.00       6.17       2.87        0.08     1.43   0.273
  5                         10.51       7.00       0.00       7.31       5.94        0.10     1.85   0.340
  6                         10.51       0.00       0.00       6.19       2.71        0.13     2.47   0.258
  7                         10.51       0.00       0.00       4.52       2.38        3.81    62.67   0.227
  8                         10.51       0.00       0.00       6.19       2.75        0.12     2.16   0.262
  9                         10.51       2.70       0.00       6.68       3.71        0.14     2.57   0.281
  17                        10.51       0.00       0.00       6.18       2.79        0.10     1.90   0.265
  18                        10.51       0.00       0.00       6.19       2.75        0.12     2.20   0.261
  28                        10.51       7.86       0.00       7.40       5.85        0.15     2.75   0.319
  29                        10.51       3.25       0.00       6.68       4.02        0.10     1.78   0.292
  30                        10.51      10.65       0.00       7.73       8.44        0.08     1.44   0.399
  31                        10.51       0.00       0.00       6.18       2.79        0.10     1.84   0.266
  33                        10.51       0.00       0.00       6.12       3.17        0.03     0.54   0.302
  34                        10.51       5.94       0.00       7.19       5.34        0.11     2.03   0.325
  35                        10.51       0.00       0.00       6.18       2.83        0.09     1.60   0.270
  36                        10.51       5.28       0.00       7.12       4.41        0.26     4.66   0.279
  39                        10.51       0.00       0.00       6.18       2.80        0.10     1.78   0.267
  40                        10.51       1.46       0.00       6.47       3.26        0.13     2.35   0.273
  41                        10.51       0.00       0.00       6.16       2.95        0.06     1.08   0.281
  42                        10.51       0.00       0.00       6.17       2.91        0.07     1.25   0.277
  43                        10.51       0.00       0.00       6.07       3.45        0.01     0.25   0.328
  44                        10.51      73.39       0.00      11.55      56.87        0.21     3.67   0.678
  45                        10.51       0.00       0.00       6.13       3.12        0.03     0.62   0.297
  46                        10.51       4.35       0.00       6.93       4.61        0.10     1.82   0.310
  47                        10.51       0.00       0.00       6.13       3.10        0.03     0.66   0.295
  48                        10.51       2.17       0.00       6.55       3.87        0.06     1.15   0.305
  55                        10.51       3.21       0.00       6.68       4.65        0.04     0.74   0.339
  56                        10.51       4.81       0.00       6.99       4.79        0.10     1.88   0.313
  57                        10.51       0.00       0.00       6.19       2.71        0.14     2.50   0.258
  59                        10.51       0.00       0.00       6.12       3.18        0.03     0.52   0.303
  60                        10.51       7.09       0.00       7.19       7.08        0.04     0.71   0.402
  61                        10.51       0.00       0.00       6.22       2.38        0.43     7.76   0.227
  62                        10.51       0.00       0.00       6.22       2.37        0.45     8.13   0.226
  64                        10.51       0.00       0.00       6.14       3.08        0.04     0.71   0.293
  
  
  ****************************
  Subcatchment Washoff Summary
  ****************************
  
  ------------------------------------------------------------------------------------------
                                 COD         NH3-N            TN            TP            SS
  Subcatchment                    kg            kg            kg            kg            kg
  ------------------------------------------------------------------------------------------
  1                            5.750         0.000         0.000         0.000         0.000
  2                            0.000         0.000         0.000         0.000         0.000
  3                            0.000         0.000         0.000         0.000         0.000
  4                            6.479         0.000         0.000         0.000         0.000
  5                           18.685         0.000         0.000         0.000         0.000
  6                           10.838         0.000         0.000         0.000         0.000
  7                          286.625         0.000         0.000         0.000         0.000
  8                            9.549         0.000         0.000         0.000         0.000
  9                           17.015         0.000         0.000         0.000         0.000
  17                           8.469         0.000         0.000         0.000         0.000
  18                           9.735         0.000         0.000         0.000         0.000
  28                          33.071         0.000         0.000         0.000         0.000
  29                          15.407         0.000         0.000         0.000         0.000
  30                          18.515         0.000         0.000         0.000         0.000
  31                           8.238         0.000         0.000         0.000         0.000
  33                           2.567         0.000         0.000         0.000         0.000
  34                          18.893         0.000         0.000         0.000         0.000
  35                           7.221         0.000         0.000         0.000         0.000
  36                          40.903         0.000         0.000         0.000         0.000
  39                           7.967         0.000         0.000         0.000         0.000
  40                          13.352         0.000         0.000         0.000         0.000
  41                           4.982         0.000         0.000         0.000         0.000
  42                           5.699         0.000         0.000         0.000         0.000
  43                           1.256         0.000         0.000         0.000         0.000
  44                          46.866         0.000         0.000         0.000         0.000
  45                           2.949         0.000         0.000         0.000         0.000
  46                          15.396         0.000         0.000         0.000         0.000
  47                           3.137         0.000         0.000         0.000         0.000
  48                           7.559         0.000         0.000         0.000         0.000
  55                           5.693         0.000         0.000         0.000         0.000
  56                          17.054         0.000         0.000         0.000         0.000
  57                          10.947         0.000         0.000         0.000         0.000
  59                           2.495         0.000         0.000         0.000         0.000
  60                           7.737         0.000         0.000         0.000         0.000
  61                          30.871         0.000         0.000         0.000         0.000
  62                          32.203         0.000         0.000         0.000         0.000
  64                           3.345         0.000         0.000         0.000         0.000
  ------------------------------------------------------------------------------------------
  System                     737.467         0.000         0.000         0.000         0.000
  
  
  ******************
  Node Depth Summary
  ******************
  
  ---------------------------------------------------------------------------------
                                 Average  Maximum  Maximum  Time of Max    Reported
                                   Depth    Depth      HGL   Occurrence   Max Depth
  Node                 Type       Meters   Meters   Meters  days hr:min      Meters
  ---------------------------------------------------------------------------------
  WS01000070           JUNCTION     0.00     0.00     0.00     0  00:00        0.00
  WS01000323           JUNCTION     0.00     0.00     0.00     0  00:00        0.00
  WS01000533           JUNCTION     0.00     0.00     6.86     0  00:00        0.00
  WS01005172           JUNCTION     0.00     0.00     0.00     0  00:00        0.00
  WS01005181           JUNCTION     0.00     0.00     0.00     0  00:00        0.00
  WS01009841           JUNCTION     0.00     0.00     0.00     0  00:00        0.00
  WS02000078           JUNCTION     0.00     0.00     0.00     0  00:00        0.00
  WS02000112           JUNCTION     0.00     0.00     0.00     0  00:00        0.00
  WS02000136           JUNCTION     0.00     0.00     0.00     0  00:00        0.00
  WS02001211           JUNCTION     0.39     0.45     5.29     0  02:51        0.45
  WS02001212           JUNCTION     0.33     0.40     5.20     0  02:50        0.40
  WS02001213           JUNCTION     0.42     0.50     5.20     0  02:49        0.50
  WS02003059           JUNCTION     0.38     0.50     5.15     0  02:48        0.50
  WS02003060           JUNCTION     0.43     0.59     5.14     0  02:48        0.59
  WS02003066           JUNCTION     0.16     0.29     5.59     0  02:47        0.29
  WS02003067           JUNCTION     0.27     0.48     5.80     0  02:46        0.46
  WS02003071           JUNCTION     0.48     0.64     5.04     0  02:50        0.63
  WS02003072           JUNCTION     0.40     0.55     4.92     0  02:49        0.55
  WS02003073           JUNCTION     0.46     0.69     4.93     0  02:15        0.66
  WS02003076           JUNCTION     0.42     0.62     4.85     0  02:14        0.61
  WS02003077           JUNCTION     0.05     0.08     5.09     0  03:04        0.08
  WS02003078           JUNCTION     0.03     0.05     6.95     0  03:04        0.05
  WS02003079           JUNCTION     0.10     0.16     7.07     0  03:03        0.16
  WS02003093           JUNCTION     0.01     0.03     7.37     0  03:02        0.03
  WS02003094           JUNCTION     0.09     0.15     7.37     0  03:01        0.15
  WS02003098           JUNCTION     0.06     0.09     7.26     0  03:02        0.09
  WS02003099           JUNCTION     0.11     0.18     7.22     0  03:03        0.18
  WS02003102           JUNCTION     0.10     0.17     7.20     0  03:01        0.17
  WS02003103           JUNCTION     0.11     0.19     7.16     0  03:02        0.19
  WS02003104           JUNCTION     0.11     0.18     7.14     0  03:02        0.18
  WS02003106           JUNCTION     0.11     0.18     7.11     0  03:03        0.18
  WS02004050           JUNCTION     0.29     0.39     4.61     0  02:50        0.39
  WS02004053           JUNCTION     0.00     0.00     0.00     0  00:00        0.00
  WS02004136           JUNCTION     0.16     0.21     6.94     0  00:01        0.18
  WS02004139           JUNCTION     0.33     0.37     5.33     0  02:52        0.37
  WS02004401           JUNCTION     0.28     0.48     6.48     0  02:43        0.48
  WS02004402           JUNCTION     0.28     0.49     6.45     0  02:43        0.48
  WS02004403           JUNCTION     0.27     0.48     6.41     0  02:43        0.48
  WS02004404           JUNCTION     0.35     0.57     6.42     0  02:44        0.57
  WS02004405           JUNCTION     0.35     0.56     6.40     0  02:43        0.56
  WS02004406           JUNCTION     0.33     0.54     6.37     0  02:44        0.53
  WS02004407           JUNCTION     0.31     0.51     6.31     0  02:44        0.50
  WS02004409           JUNCTION     0.30     0.49     6.26     0  02:44        0.49
  WS02004410           JUNCTION     0.29     0.47     6.19     0  02:45        0.47
  WS02004411           JUNCTION     0.27     0.44     6.12     0  02:45        0.43
  WS02004412           JUNCTION     0.23     0.38     6.02     0  02:45        0.38
  WS02004413           JUNCTION     0.24     0.40     5.87     0  02:46        0.40
  WS02004997           JUNCTION     5.25     6.68     8.29     0  03:00        6.68
  WS02005192           JUNCTION     0.12     0.22     8.09     0  02:55        0.22
  WS02005193           JUNCTION     0.14     0.26     8.08     0  02:55        0.26
  WS02005196           JUNCTION     0.13     0.24     8.09     0  02:55        0.24
  WS02006109           JUNCTION     0.33     0.56     7.18     0  02:40        0.56
  WS02006110           JUNCTION     0.31     0.51     7.11     0  02:41        0.51
  WS02006111           JUNCTION     0.16     0.28     6.86     0  02:41        0.28
  WS02006112           JUNCTION     0.31     0.51     6.63     0  02:42        0.51
  WS02006113           JUNCTION     0.26     0.44     7.03     0  02:43        0.43
  WS02006115           JUNCTION     0.26     0.46     6.56     0  02:42        0.46
  WS02006116           JUNCTION     0.29     0.49     6.53     0  02:42        0.49
  WS02006183           JUNCTION     0.00     0.00     0.00     0  00:00        0.00
  WS02006228           JUNCTION     0.33     0.57     7.22     0  02:40        0.57
  WS02006229           JUNCTION     0.31     0.55     7.24     0  02:40        0.54
  WS02006230           JUNCTION     0.29     0.55     7.30     0  02:40        0.55
  WS02006231           JUNCTION     0.22     0.44     7.34     0  02:39        0.44
  WS02006232           JUNCTION     0.22     0.41     7.44     0  02:39        0.40
  WS02006234           JUNCTION     0.22     0.41     7.57     0  02:39        0.40
  WS02006235           JUNCTION     0.26     0.47     7.64     0  02:39        0.47
  WS02006238           JUNCTION     0.26     0.48     7.66     0  02:39        0.48
  WS02006239           JUNCTION     0.26     0.47     7.68     0  02:39        0.47
  WS02006242           JUNCTION     0.26     0.45     7.75     0  02:40        0.45
  WS02006240           JUNCTION     0.22     0.41     7.70     0  02:40        0.41
  WS02006243           JUNCTION     0.19     0.36     7.78     0  02:40        0.35
  WS02006245           JUNCTION     0.19     0.36     7.85     0  02:56        0.36
  WS02006247           JUNCTION     0.21     0.38     7.89     0  02:56        0.38
  WS02006248           JUNCTION     0.17     0.34     7.93     0  02:55        0.34
  WS02006249           JUNCTION     0.20     0.37     7.97     0  02:55        0.37
  WS02006251           JUNCTION     0.19     0.37     8.04     0  02:55        0.37
  WS02006253           JUNCTION     0.14     0.28     8.08     0  02:55        0.28
  WS02618401           JUNCTION     0.00     0.00     0.00     0  00:00        0.00
  WS8802               JUNCTION     0.00     0.00     4.38     0  00:00        0.00
  WSA1649              JUNCTION     0.00     0.00     0.00     0  00:00        0.00
  WSF200               JUNCTION     0.15     0.27     5.37     0  02:47        0.25
  XR-Inflow            JUNCTION     5.10     6.55     8.36     0  02:40        6.55
  WS02004114           JUNCTION     5.22     6.65     8.25     0  03:00        6.65
  outfall-2            OUTFALL      0.00     0.00     7.00     0  00:00        0.00
  outfall-5            OUTFALL      0.00     0.00     7.67     0  00:00        0.00
  outfall-14           OUTFALL      0.00     0.00     7.66     0  00:00        0.00
  outfall-16           OUTFALL      0.00     0.00     8.39     0  00:00        0.00
  12                   OUTFALL      0.29     0.39     0.39     0  02:50        0.39
  XR-storage           STORAGE      6.20     7.72     8.22     0  01:17        7.72
  CC-storage           STORAGE      1.13     4.28     7.46     0  03:42        4.28
  JK-storage           STORAGE      1.37     4.80     7.80     0  03:12        4.80
  
  
  *******************
  Node Inflow Summary
  *******************
  
  -------------------------------------------------------------------------------------------------
                                  Maximum  Maximum                  Lateral       Total        Flow
                                  Lateral    Total  Time of Max      Inflow      Inflow     Balance
                                   Inflow   Inflow   Occurrence      Volume      Volume       Error
  Node                 Type           MLD      MLD  days hr:min    10^6 ltr    10^6 ltr     Percent
  -------------------------------------------------------------------------------------------------
  WS01000070           JUNCTION      0.00     0.00     0  00:00           0           0       0.000 ltr
  WS01000323           JUNCTION      0.00     0.00     0  00:00           0           0       0.000 ltr
  WS01000533           JUNCTION      0.00     0.00     0  00:00           0           0       0.000 ltr
  WS01005172           JUNCTION      0.00     0.00     0  00:00           0           0       0.000 ltr
  WS01005181           JUNCTION      0.00     0.00     0  00:00           0           0       0.000 ltr
  WS01009841           JUNCTION      0.00     0.00     0  00:00           0           0       0.000 ltr
  WS02000078           JUNCTION      0.00     0.00     0  00:00           0           0       0.000 ltr
  WS02000112           JUNCTION      0.00     0.00     0  00:00           0           0       0.000 ltr
  WS02000136           JUNCTION      0.00     0.00     0  00:00           0           0       0.000 ltr
  WS02001211           JUNCTION      0.25    35.75     0  00:02      0.0407        4.52       0.571
  WS02001212           JUNCTION      0.21    35.15     0  00:04      0.0346        4.53       0.328
  WS02001213           JUNCTION      0.30    34.44     0  02:50      0.0489        4.57       0.418
  WS02003059           JUNCTION      0.23    36.94     0  00:05      0.0378        4.59       0.528
  WS02003060           JUNCTION      0.16    86.77     0  02:47      0.0252        7.72       0.466
  WS02003066           JUNCTION      0.08    60.61     0  02:46      0.0122        3.12       0.169
  WS02003067           JUNCTION      0.26    48.74     0  02:46      0.0395        3.12       0.317
  WS02003071           JUNCTION      0.35    82.21     0  02:48      0.0538        7.74       0.492
  WS02003072           JUNCTION      0.24    83.23     0  02:50      0.0382        7.74       0.298
  WS02003073           JUNCTION      0.07    87.52     0  02:49     0.00978        8.03       0.281
  WS02003076           JUNCTION      0.72    96.81     0  02:58        0.12        8.13       0.156
  WS02003077           JUNCTION      0.04     4.80     0  03:04      0.0059       0.305       0.153
  WS02003078           JUNCTION      0.03     5.49     0  03:04     0.00419       0.299      -0.117
  WS02003079           JUNCTION      0.04     4.74     0  03:03     0.00561       0.296       0.346
  WS02003093           JUNCTION      0.02     0.02     0  01:00     0.00306     0.00306       0.741
  WS02003094           JUNCTION      2.62     2.62     0  03:01        0.15       0.153       1.070
  WS02003098           JUNCTION      0.02     2.61     0  03:01     0.00293       0.154       0.600
  WS02003099           JUNCTION      0.07     2.65     0  03:02      0.0109       0.164       1.314
  WS02003102           JUNCTION      2.18     4.72     0  03:01       0.121       0.283       0.598
  WS02003103           JUNCTION      0.02     4.68     0  03:01     0.00239       0.283       0.450
  WS02003104           JUNCTION      0.02     4.68     0  03:02     0.00302       0.285       0.377
  WS02003106           JUNCTION      0.05     4.71     0  03:02     0.00727       0.291       0.474
  WS02004050           JUNCTION      0.72   100.50     0  02:49       0.119        8.24       0.704
  WS02004053           JUNCTION      0.00     0.00     0  00:00           0           0       0.000 ltr
  WS02004136           JUNCTION      0.44    32.92     0  01:30      0.0703        4.44       0.066
  WS02004139           JUNCTION      0.38    39.53     0  00:01      0.0619         4.5       0.382
  WS02004401           JUNCTION      0.05    41.62     0  02:42     0.00897        2.46       0.451
  WS02004402           JUNCTION      0.22    41.53     0  02:43      0.0335        2.48       0.402
  WS02004403           JUNCTION      0.23    41.50     0  02:43      0.0349        2.51       0.333
  WS02004404           JUNCTION      0.24    41.44     0  02:43      0.0365        2.54       0.291
  WS02004405           JUNCTION      1.49    42.45     0  02:43      0.0877        2.62       0.418
  WS02004406           JUNCTION      2.87    44.36     0  02:43       0.175        2.78       0.581
  WS02004407           JUNCTION      0.11    44.23     0  02:44      0.0171        2.78       0.504
  WS02004409           JUNCTION      2.03    45.68     0  02:44       0.135         2.9       0.415
  WS02004410           JUNCTION      0.15    45.83     0  02:45      0.0226        2.91       0.407
  WS02004411           JUNCTION      0.25    45.95     0  02:45      0.0379        2.94       0.345
  WS02004412           JUNCTION      2.55    48.28     0  02:45       0.149        3.08       0.263
  WS02004413           JUNCTION      0.11    48.49     0  02:46      0.0172        3.09       0.243
  WS02004997           JUNCTION      0.42    63.57     0  03:00      0.0693        6.87       0.606
  WS02005192           JUNCTION      2.59     2.59     0  03:01       0.153       0.153       0.529
  WS02005193           JUNCTION      0.09     4.25     0  02:41      0.0146       0.192       1.036
  WS02005196           JUNCTION      0.12     2.82     0  02:41       0.019       0.174       1.114
  WS02006109           JUNCTION      0.08    39.49     0  02:40      0.0135        2.24       0.650
  WS02006110           JUNCTION      0.08    39.42     0  02:41      0.0132        2.24       0.590
  WS02006111           JUNCTION      0.24    41.80     0  02:41      0.0366        2.42       0.221
  WS02006112           JUNCTION      0.18    42.03     0  02:42      0.0273        2.44       0.515
  WS02006113           JUNCTION      2.68    41.52     0  02:41       0.164        2.39       0.407
  WS02006115           JUNCTION      0.08    41.94     0  02:42      0.0134        2.44       0.521
  WS02006116           JUNCTION      0.24    41.82     0  02:42       0.036        2.46       0.486
  WS02006183           JUNCTION      0.00     0.00     0  00:00           0           0       0.000 ltr
  WS02006228           JUNCTION      3.82    39.56     0  02:40       0.238        2.24       0.494
  WS02006229           JUNCTION      0.13    37.17     0  02:40        0.02        2.01       0.475
  WS02006230           JUNCTION      0.07    37.30     0  02:39      0.0116           2       0.531
  WS02006231           JUNCTION      0.13    37.48     0  02:39      0.0205        1.99       0.355
  WS02006232           JUNCTION      1.84    37.59     0  02:39       0.108        1.98       0.345
  WS02006234           JUNCTION      0.14    36.45     0  02:39      0.0216        1.88       0.359
  WS02006235           JUNCTION      0.14    36.51     0  02:39      0.0223        1.86       0.224
  WS02006238           JUNCTION      0.15    36.73     0  02:39      0.0235        1.85       0.301
  WS02006239           JUNCTION      0.11    23.00     0  02:40      0.0174        1.24       0.736
  WS02006242           JUNCTION      0.08    22.69     0  02:56      0.0129        1.23       0.899
  WS02006240           JUNCTION      0.06    22.72     0  02:57     0.00992        1.23       0.693
  WS02006243           JUNCTION      0.17    22.65     0  02:56      0.0269        1.22       0.630
  WS02006245           JUNCTION      0.07    22.50     0  02:56      0.0113         1.2       0.478
  WS02006247           JUNCTION      1.62    22.45     0  02:55       0.107        1.19       0.430
  WS02006248           JUNCTION      0.12    20.97     0  02:55      0.0192        1.09       0.298
  WS02006249           JUNCTION      0.19    20.90     0  02:55      0.0286        1.07       0.454
  WS02006251           JUNCTION      0.80    20.78     0  02:55      0.0483        1.05       0.405
  WS02006253           JUNCTION      0.11    20.09     0  02:54      0.0173        1.01       0.147
  WS02618401           JUNCTION      0.00     0.00     0  00:00           0           0       0.000 ltr
  WS8802               JUNCTION      0.00     0.00     0  00:00           0           0       0.000 ltr
  WSA1649              JUNCTION      0.00     0.00     0  00:00           0           0       0.000 ltr
  WSF200               JUNCTION      0.14    57.67     0  02:47      0.0216        3.14       0.021
  XR-Inflow            JUNCTION     80.60    80.60     0  03:00        7.14        7.14       0.368
  WS02004114           JUNCTION      0.57    64.10     0  03:00      0.0916        6.92       0.402
  outfall-2            OUTFALL       0.00     0.00     0  00:00           0           0       0.000 ltr
  outfall-5            OUTFALL       0.00     0.00     0  00:00           0           0       0.000 ltr
  outfall-14           OUTFALL       0.00     0.00     0  00:00           0           0       0.000 ltr
  outfall-16           OUTFALL       0.00     0.00     0  00:00           0           0       0.000 ltr
  12                   OUTFALL       0.00    89.37     0  02:50           0        8.18       0.000
  XR-storage           STORAGE       0.00    64.10     0  03:00           0         6.9      -0.478
  CC-storage           STORAGE       9.27     9.27     0  03:00       0.716       0.716     -11.001
  JK-storage           STORAGE       9.03     9.03     0  03:01       0.626       0.626      -5.594
  
  
  **********************
  Node Surcharge Summary
  **********************
  
  Surcharging occurs when water rises above the top of the highest conduit.
  ---------------------------------------------------------------------
                                               Max. Height   Min. Depth
                                   Hours       Above Crown    Below Rim
  Node                 Type      Surcharged         Meters       Meters
  ---------------------------------------------------------------------
  WS01000070           JUNCTION        4.00          0.000        0.000
  WS01000323           JUNCTION        4.00          0.000        0.000
  WS01000533           JUNCTION        4.00          0.000        2.147
  WS01005172           JUNCTION        4.00          0.000        0.000
  WS01005181           JUNCTION        4.00          0.000        0.000
  WS01009841           JUNCTION        4.00          0.000        0.000
  WS02000078           JUNCTION        4.00          0.000        0.000
  WS02000112           JUNCTION        4.00          0.000        0.000
  WS02000136           JUNCTION        4.00          0.000        0.000
  WS02004053           JUNCTION        4.00          0.000        0.000
  WS02004997           JUNCTION        3.19          5.783        0.217
  WS02006183           JUNCTION        4.00          0.000        0.000
  WS02618401           JUNCTION        4.00          0.000        0.000
  WS8802               JUNCTION        4.00          0.000        4.942
  WSA1649              JUNCTION        4.00          0.000        0.000
  XR-Inflow            JUNCTION        3.16          5.650        0.000
  WS02004114           JUNCTION        3.20          5.747        0.768
  
  
  *********************
  Node Flooding Summary
  *********************
  
  Flooding refers to all water that overflows a node, whether it ponds or not.
  --------------------------------------------------------------------------
                                                             Total   Maximum
                                 Maximum   Time of Max       Flood    Ponded
                        Hours       Rate    Occurrence      Volume     Depth
  Node                 Flooded       MLD   days hr:min    10^6 ltr    Meters
  --------------------------------------------------------------------------
  XR-Inflow               0.94     17.43      0  03:00       0.316     0.000
  XR-storage              2.23     54.70      0  02:30       2.494     0.000
  JK-storage              0.32      6.41      0  03:12       0.066     0.000
  
  
  **********************
  Storage Volume Summary
  **********************
  
  --------------------------------------------------------------------------------------------------
                         Average     Avg  Evap Exfil       Maximum     Max    Time of Max    Maximum
                          Volume    Pcnt  Pcnt  Pcnt        Volume    Pcnt     Occurrence    Outflow
  Storage Unit           1000 m3    Full  Loss  Loss       1000 m3    Full    days hr:min        MLD
  --------------------------------------------------------------------------------------------------
  XR-storage               0.050      80     0     0         0.063     100       0  01:17      32.48
  CC-storage               0.032      20     0     0         0.121      76       0  03:42      17.53
  JK-storage               0.039      29     0     0         0.136     100       0  03:12      34.56
  
  
  ***********************
  Outfall Loading Summary
  ***********************
  
  ---------------------------------------------------------------------------------------------------------------------------------
                         Flow       Avg       Max       Total         Total         Total         Total         Total         Total
                         Freq      Flow      Flow      Volume           COD         NH3-N            TN            TP            SS
  Outfall Node           Pcnt       MLD       MLD    10^6 ltr            kg            kg            kg            kg            kg
  ---------------------------------------------------------------------------------------------------------------------------------
  outfall-2              0.00      0.00      0.00       0.000         0.000         0.000         0.000         0.000         0.000
  outfall-5              0.00      0.00      0.00       0.000         0.000         0.000         0.000         0.000         0.000
  outfall-14             0.00      0.00      0.00       0.000         0.000         0.000         0.000         0.000         0.000
  outfall-16             0.00      0.00      0.00       0.000         0.000         0.000         0.000         0.000         0.000
  12                    99.98     53.19     89.37       8.179       977.798         0.000         0.000         0.000         0.000
  ---------------------------------------------------------------------------------------------------------------------------------
  System                20.00     53.19     89.37       8.179       977.798         0.000         0.000         0.000         0.000
  
  
  ********************
  Link Flow Summary
  ********************
  
  -----------------------------------------------------------------------------
                                 Maximum  Time of Max   Maximum    Max/    Max/
                                  |Flow|   Occurrence   |Veloc|    Full    Full
  Link                 Type          MLD  days hr:min     m/sec    Flow   Depth
  -----------------------------------------------------------------------------
  WSL49                CONDUIT     96.09     0  02:58      2.09    1.20    0.52
  WSL1465              CONDUIT     35.66     0  03:13      1.99    0.32    0.54
  WSL1472              CONDUIT     83.01     0  02:50      1.76    0.95    0.49
  WSL1475              CONDUIT     99.78     0  02:49      2.64    1.06    0.35
  WSL1476              CONDUIT      4.79     0  03:04      0.40    0.02    0.47
  WSL1477              CONDUIT      5.46     0  03:04      1.84    0.22    0.18
  WSL1490              CONDUIT     34.94     0  00:04      1.60    0.57    0.42
  WSL1491              CONDUIT     34.15     0  02:50      1.86    0.20    0.45
  WSL1492              CONDUIT     36.71     0  00:05      1.71    0.57    0.50
  WSL1507              CONDUIT      0.07     0  03:03      0.11    0.00    0.11
  WSL1508              CONDUIT      2.59     0  03:01      0.64    0.07    0.15
  WSL1512              CONDUIT      2.59     0  03:02      0.46    0.02    0.14
  WSL1513              CONDUIT      2.66     0  03:04      0.39    0.16    0.22
  WSL1515              CONDUIT     60.54     0  02:46      2.38    0.59    0.31
  WSL1516              CONDUIT      4.77     0  03:04      3.05    0.02    0.12
  WSL1518              CONDUIT      4.67     0  03:01      0.65    0.09    0.22
  WSL1519              CONDUIT      4.67     0  03:02      0.63    0.12    0.23
  WSL1521              CONDUIT      4.71     0  03:03      0.69    0.14    0.21
  WSL1543              CONDUIT      4.66     0  03:02      0.61    0.15    0.23
  WSL1961              CONDUIT     39.15     0  00:01      3.75    0.08    0.28
  WSL1964              CONDUIT     35.50     0  00:02      1.79    0.19    0.34
  WSL2010              CONDUIT     41.30     0  02:43      1.28    0.53    0.48
  WSL2011              CONDUIT     41.23     0  02:43      1.16    0.27    0.52
  WSL2012              CONDUIT     41.26     0  02:43      1.05    0.63    0.56
  WSL2013              CONDUIT     42.21     0  02:43      1.11    1.05    0.55
  WSL2014              CONDUIT     44.13     0  02:44      1.24    0.70    0.52
  WSL2015              CONDUIT     44.09     0  02:44      1.31    0.59    0.50
  WSL2016              CONDUIT     45.70     0  02:45      1.42    0.53    0.48
  WSL2017              CONDUIT     45.73     0  02:45      1.53    0.56    0.45
  WSL2018              CONDUIT     48.39     0  02:46      1.99    0.29    0.39
  WSL2019              CONDUIT     48.51     0  02:46      1.80    0.29    0.44
  WSL2028              CONDUIT     41.34     0  02:43      1.28    0.44    0.48
  WSL2029              CONDUIT     46.18     0  02:45      1.79    0.58    0.41
  WSL2038              CONDUIT      2.71     0  02:41      0.49    0.13    0.38
  WSL2039              CONDUIT      5.54     0  02:40      0.85    0.29    0.46
  WSL2041              CONDUIT      4.17     0  02:41      0.61    0.20    0.42
  WSL2294              CONDUIT     39.35     0  02:41      1.28    1.32    0.67
  WSL2295              CONDUIT     39.40     0  02:41      1.50    1.77    0.58
  WSL2296              CONDUIT     41.87     0  02:42      1.97    0.24    0.49
  WSL2297              CONDUIT     41.86     0  02:42      1.28    0.80    0.49
  WSL2298              CONDUIT     41.59     0  02:41      2.28    1.91    0.44
  WSL2301              CONDUIT     41.62     0  02:42      1.31    0.38    0.47
  WSL2302              CONDUIT     41.56     0  02:42      1.28    0.51    0.48
  WSL2441              CONDUIT     39.41     0  02:40      1.20    1.01    0.71
  WSL2442              CONDUIT     37.06     0  02:40      1.33    0.95    0.78
  WSL2443              CONDUIT     37.23     0  02:39      1.49    0.58    0.70
  WSL2444              CONDUIT     37.37     0  02:39      1.79    0.59    0.61
  WSL2446              CONDUIT     36.19     0  02:39      1.82    0.62    0.58
  WSL2447              CONDUIT     36.32     0  02:39      1.70    1.87    0.63
  WSL2448              CONDUIT     36.38     0  02:39      1.53    1.02    0.68
  WSL2449              CONDUIT     23.82     0  02:41      1.21    0.83    0.68
  WSL2450              CONDUIT     22.90     0  02:40      1.22    0.48    0.63
  WSL2451              CONDUIT     22.66     0  02:57      1.16    1.48    0.61
  WSL2452              CONDUIT     22.62     0  02:56      1.19    0.43    0.58
  WSL2454              CONDUIT     22.49     0  02:56      1.33    0.52    0.51
  WSL2478              CONDUIT     22.44     0  02:56      1.26    0.79    0.53
  WSL2479              CONDUIT     20.96     0  02:55      1.22    0.40    0.52
  WSL2480              CONDUIT     20.86     0  02:55      1.23    0.97    0.51
  WSL2482              CONDUIT     20.73     0  02:55      1.16    0.54    0.53
  WSL2484              CONDUIT     20.06     0  02:55      1.35    0.28    0.47
  WSL2493              CONDUIT     36.98     0  02:40      1.14    0.62    0.70
  WSL2867              CONDUIT     57.55     0  02:47      3.40    0.12    0.23
  WSL2868              CONDUIT     53.54     0  02:47      1.82    0.10    0.36
  WSL348               CONDUIT     63.16     0  03:00      1.88    0.58    1.00
  WSL175               CONDUIT     63.56     0  03:00      2.31    2.14    1.00
  WSL1467              CONDUIT     81.90     0  02:48      1.67    0.43    0.51
  WSL1473              CONDUIT     83.45     0  02:49      1.85    0.34    0.50
  XRpipe               CONDUIT     64.10     0  03:00      8.80    0.16    1.00
  8                    CONDUIT      0.00     0  00:00      0.00    0.00    0.00
  19                   CONDUIT      0.00     0  00:00      0.00    0.00    0.00
  17                   CONDUIT      0.00     0  00:00      0.00    0.00    0.00
  4                    CONDUIT      0.00     0  00:00      0.00    0.00    0.00
  2                    CONDUIT     89.37     0  02:50      3.63    0.32    0.39
  XR-Pump-1            PUMP         8.12     0  00:01              1.00
  XR-Pump-3            PUMP         8.12     0  00:01              1.00
  XR-Pump-2            PUMP         8.12     0  00:01              1.00
  XR-Pump-4            PUMP         8.12     0  00:01              1.00
  CC-Pump-1            PUMP         8.76     0  02:54              0.51
  CC-Pump-2            PUMP        17.28     0  01:40              1.00
  JK-Pump-1            PUMP        17.28     0  03:40              1.00
  JK-Pump-2            PUMP        17.28     0  03:40              1.00
  
  
  ***************************
  Flow Classification Summary
  ***************************
  
  -------------------------------------------------------------------------------------
                      Adjusted    ---------- Fraction of Time in Flow Class ---------- 
                       /Actual         Up    Down  Sub   Sup   Up    Down  Norm  Inlet 
  Conduit               Length    Dry  Dry   Dry   Crit  Crit  Crit  Crit  Ltd   Ctrl  
  -------------------------------------------------------------------------------------
  WSL49                   1.00   0.00  0.00  0.00  1.00  0.00  0.00  0.00  0.00  0.00
  WSL1465                 1.00   0.00  0.00  0.00  0.99  0.01  0.00  0.00  0.07  0.00
  WSL1472                 1.00   0.00  0.00  0.00  1.00  0.00  0.00  0.00  0.00  0.00
  WSL1475                 1.00   0.00  0.00  0.00  0.09  0.91  0.00  0.00  0.00  0.00
  WSL1476                 1.00   0.00  0.00  0.00  1.00  0.00  0.00  0.00  1.00  0.00
  WSL1477                 1.00   0.00  0.00  0.00  0.01  0.99  0.00  0.00  0.36  0.00
  WSL1490                 1.00   0.00  0.00  0.00  1.00  0.00  0.00  0.00  0.00  0.00
  WSL1491                 1.00   0.00  0.00  0.00  1.00  0.00  0.00  0.00  0.09  0.00
  WSL1492                 1.00   0.00  0.00  0.00  1.00  0.00  0.00  0.00  0.01  0.00
  WSL1507                 1.00   0.00  0.00  0.00  1.00  0.00  0.00  0.00  0.88  0.00
  WSL1508                 1.00   0.00  0.00  0.00  1.00  0.00  0.00  0.00  0.00  0.00
  WSL1512                 1.00   0.00  0.00  0.00  1.00  0.00  0.00  0.00  1.00  0.00
  WSL1513                 1.00   0.00  0.00  0.00  1.00  0.00  0.00  0.00  0.00  0.00
  WSL1515                 1.00   0.00  0.00  0.00  0.12  0.88  0.00  0.00  0.04  0.00
  WSL1516                 1.00   0.00  0.00  0.00  0.00  1.00  0.00  0.00  1.00  0.00
  WSL1518                 1.00   0.00  0.00  0.00  1.00  0.00  0.00  0.00  0.76  0.00
  WSL1519                 1.00   0.00  0.00  0.00  1.00  0.00  0.00  0.00  0.36  0.00
  WSL1521                 1.00   0.00  0.00  0.00  1.00  0.00  0.00  0.00  0.02  0.00
  WSL1543                 1.00   0.00  0.00  0.00  1.00  0.00  0.00  0.00  0.02  0.00
  WSL1961                 1.00   0.00  0.00  0.00  0.03  0.97  0.00  0.00  0.99  0.00
  WSL1964                 1.00   0.00  0.00  0.00  1.00  0.00  0.00  0.00  0.12  0.00
  WSL2010                 1.00   0.00  0.00  0.00  1.00  0.00  0.00  0.00  0.00  0.00
  WSL2011                 1.00   0.00  0.00  0.00  1.00  0.00  0.00  0.00  0.18  0.00
  WSL2012                 1.00   0.00  0.00  0.00  1.00  0.00  0.00  0.00  0.00  0.00
  WSL2013                 1.00   0.00  0.00  0.00  1.00  0.00  0.00  0.00  0.00  0.00
  WSL2014                 1.00   0.00  0.00  0.00  1.00  0.00  0.00  0.00  0.00  0.00
  WSL2015                 1.00   0.00  0.00  0.00  1.00  0.00  0.00  0.00  0.02  0.00
  WSL2016                 1.00   0.00  0.00  0.00  1.00  0.00  0.00  0.00  0.05  0.00
  WSL2017                 1.00   0.00  0.00  0.00  1.00  0.00  0.00  0.00  0.04  0.00
  WSL2018                 1.00   0.00  0.00  0.00  0.02  0.98  0.00  0.00  0.14  0.00
  WSL2019                 1.00   0.00  0.00  0.00  0.41  0.59  0.00  0.00  0.11  0.00
  WSL2028                 1.00   0.00  0.00  0.00  1.00  0.00  0.00  0.00  0.06  0.00
  WSL2029                 1.00   0.00  0.00  0.00  0.36  0.64  0.00  0.00  0.00  0.00
  WSL2038                 1.00   0.00  0.00  0.00  1.00  0.00  0.00  0.00  0.01  0.00
  WSL2039                 1.00   0.00  0.00  0.00  1.00  0.00  0.00  0.00  0.02  0.00
  WSL2041                 1.00   0.00  0.00  0.00  1.00  0.00  0.00  0.00  0.25  0.00
  WSL2294                 1.00   0.00  0.00  0.00  1.00  0.00  0.00  0.00  0.00  0.00
  WSL2295                 1.00   0.00  0.00  0.00  1.00  0.00  0.00  0.00  0.00  0.00
  WSL2296                 1.00   0.00  0.00  0.00  0.20  0.80  0.00  0.00  0.76  0.00
  WSL2297                 1.00   0.00  0.00  0.00  1.00  0.00  0.00  0.00  0.00  0.00
  WSL2298                 1.00   0.00  0.00  0.00  0.07  0.93  0.00  0.00  0.00  0.00
  WSL2301                 1.00   0.00  0.00  0.00  1.00  0.00  0.00  0.00  0.09  0.00
  WSL2302                 1.00   0.00  0.00  0.00  1.00  0.00  0.00  0.00  0.00  0.00
  WSL2441                 1.00   0.00  0.00  0.00  1.00  0.00  0.00  0.00  0.02  0.00
  WSL2442                 1.00   0.00  0.00  0.00  1.00  0.00  0.00  0.00  0.12  0.00
  WSL2443                 1.00   0.00  0.00  0.00  0.99  0.01  0.00  0.00  0.43  0.00
  WSL2444                 1.00   0.00  0.00  0.00  0.08  0.92  0.00  0.00  0.32  0.00
  WSL2446                 1.00   0.00  0.00  0.00  0.05  0.95  0.00  0.00  0.37  0.00
  WSL2447                 1.00   0.00  0.00  0.00  1.00  0.00  0.00  0.00  0.00  0.00
  WSL2448                 1.00   0.00  0.00  0.00  1.00  0.00  0.00  0.00  0.02  0.00
  WSL2449                 1.00   0.00  0.00  0.00  1.00  0.00  0.00  0.00  0.05  0.00
  WSL2450                 1.00   0.00  0.00  0.00  1.00  0.00  0.00  0.00  0.41  0.00
  WSL2451                 1.00   0.00  0.00  0.00  1.00  0.00  0.00  0.00  0.00  0.00
  WSL2452                 1.00   0.00  0.00  0.00  1.00  0.00  0.00  0.00  0.61  0.00
  WSL2454                 1.00   0.00  0.00  0.00  1.00  0.00  0.00  0.00  0.06  0.00
  WSL2478                 1.00   0.00  0.00  0.00  1.00  0.00  0.00  0.00  0.00  0.00
  WSL2479                 1.00   0.00  0.00  0.00  1.00  0.00  0.00  0.00  0.57  0.00
  WSL2480                 1.00   0.00  0.00  0.00  1.00  0.00  0.00  0.00  0.00  0.00
  WSL2482                 1.00   0.00  0.00  0.00  1.00  0.00  0.00  0.00  0.60  0.00
  WSL2484                 1.00   0.00  0.00  0.00  0.98  0.02  0.00  0.00  0.56  0.00
  WSL2493                 1.00   0.00  0.00  0.00  1.00  0.00  0.00  0.00  0.05  0.00
  WSL2867                 1.00   0.00  0.00  0.00  0.00  1.00  0.00  0.00  0.23  0.00
  WSL2868                 1.00   0.00  0.00  0.00  0.90  0.10  0.00  0.00  0.95  0.00
  WSL348                  1.00   0.00  0.00  0.00  0.97  0.03  0.00  0.00  0.02  0.00
  WSL175                  1.00   0.00  0.00  0.00  0.91  0.09  0.00  0.00  0.00  0.00
  WSL1467                 1.00   0.00  0.00  0.00  1.00  0.00  0.00  0.00  0.13  0.00
  WSL1473                 1.00   0.00  0.00  0.00  1.00  0.00  0.00  0.00  0.04  0.00
  XRpipe                  1.00   0.00  0.00  0.00  0.93  0.07  0.00  0.00  0.04  0.00
  8                       1.00   1.00  0.00  0.00  0.00  0.00  0.00  0.00  0.00  0.00
  19                      1.00   1.00  0.00  0.00  0.00  0.00  0.00  0.00  0.00  0.00
  17                      1.00   1.00  0.00  0.00  0.00  0.00  0.00  0.00  0.00  0.00
  4                       1.00   1.00  0.00  0.00  0.00  0.00  0.00  0.00  0.00  0.00
  2                       1.00   0.00  0.00  0.00  0.00  1.00  0.00  0.00  0.29  0.00
  
  
  *************************
  Conduit Surcharge Summary
  *************************
  
  ----------------------------------------------------------------------------
                                                           Hours        Hours 
                         --------- Hours Full --------   Above Full   Capacity
  Conduit                Both Ends  Upstream  Dnstream   Normal Flow   Limited
  ----------------------------------------------------------------------------
  WSL49                       0.01      0.01      0.01      0.35         0.01
  WSL1475                     0.01      0.01      0.01      0.03         0.01
  WSL2013                     0.01      0.01      0.01      0.03         0.01
  WSL2294                     0.01      0.01      0.01      0.26         0.01
  WSL2295                     0.01      0.01      0.01      0.87         0.01
  WSL2298                     0.01      0.01      0.01      1.00         0.01
  WSL2441                     0.01      0.01      0.01      0.01         0.01
  WSL2447                     0.01      0.01      0.01      0.84         0.01
  WSL2448                     0.01      0.01      0.01      0.01         0.01
  WSL2451                     0.01      0.01      0.01      0.77         0.01
  WSL348                      3.16      3.16      3.19      0.01         0.01
  WSL175                      3.19      3.19      3.20      2.39         2.51
  XRpipe                      3.20      3.20      3.58      0.01         0.01
  
  
  ***************
  Pumping Summary
  ***************
  
  ---------------------------------------------------------------------------------------------------------
                                                  Min       Avg       Max     Total     Power    % Time Off
                        Percent   Number of      Flow      Flow      Flow    Volume     Usage    Pump Curve
  Pump                 Utilized   Start-Ups       MLD       MLD       MLD  10^6 ltr     Kw-hr    Low   High
  ---------------------------------------------------------------------------------------------------------
  XR-Pump-1               95.76           4      0.00      7.25      8.12     1.121      5.90    0.0    0.0
  XR-Pump-3               91.59           4      0.00      7.22      8.12     1.065      5.74    0.0    0.0
  XR-Pump-2               91.59           4      0.00      7.22      8.12     1.065      5.74    0.0    0.0
  XR-Pump-4               95.76           4      0.00      7.25      8.12     1.121      5.90    0.0    0.0
  CC-Pump-1                8.34           1      0.00      6.25      8.76     0.088      1.17    0.0    0.0
  CC-Pump-2               54.13           4      0.00      8.32     17.28     0.717      7.25    0.0    0.0
  JK-Pump-1               12.49           1      0.00      6.03     17.28     0.119      0.91    0.0    0.0
  JK-Pump-2               45.79           3      0.00      6.71     17.28     0.479      4.52    0.0    0.0
  
  
  ***************************
  Link Pollutant Load Summary
  ***************************
  
  ------------------------------------------------------------------------------------------
                                 COD         NH3-N            TN            TP            SS
  Link                            kg            kg            kg            kg            kg
  ------------------------------------------------------------------------------------------
  WSL49                      945.138         0.000         0.000         0.000         0.000
  WSL1465                    540.100         0.000         0.000         0.000         0.000
  WSL1472                    906.227         0.000         0.000         0.000         0.000
  WSL1475                    963.642         0.000         0.000         0.000         0.000
  WSL1476                     35.774         0.000         0.000         0.000         0.000
  WSL1477                     33.899         0.000         0.000         0.000         0.000
  WSL1490                    526.359         0.000         0.000         0.000         0.000
  WSL1491                    530.459         0.000         0.000         0.000         0.000
  WSL1492                    536.402         0.000         0.000         0.000         0.000
  WSL1507                      0.507         0.000         0.000         0.000         0.000
  WSL1508                     18.997         0.000         0.000         0.000         0.000
  WSL1512                     19.431         0.000         0.000         0.000         0.000
  WSL1513                     21.063         0.000         0.000         0.000         0.000
  WSL1515                    355.451         0.000         0.000         0.000         0.000
  WSL1516                     34.598         0.000         0.000         0.000         0.000
  WSL1518                     31.190         0.000         0.000         0.000         0.000
  WSL1519                     31.921         0.000         0.000         0.000         0.000
  WSL1521                     33.020         0.000         0.000         0.000         0.000
  WSL1543                     31.484         0.000         0.000         0.000         0.000
  WSL1961                    514.164         0.000         0.000         0.000         0.000
  WSL1964                    522.224         0.000         0.000         0.000         0.000
  WSL2010                    248.720         0.000         0.000         0.000         0.000
  WSL2011                    253.823         0.000         0.000         0.000         0.000
  WSL2012                    259.233         0.000         0.000         0.000         0.000
  WSL2013                    267.089         0.000         0.000         0.000         0.000
  WSL2014                    302.376         0.000         0.000         0.000         0.000
  WSL2015                    303.805         0.000         0.000         0.000         0.000
  WSL2016                    327.205         0.000         0.000         0.000         0.000
  WSL2017                    329.820         0.000         0.000         0.000         0.000
  WSL2018                    347.724         0.000         0.000         0.000         0.000
  WSL2019                    349.928         0.000         0.000         0.000         0.000
  WSL2028                    243.913         0.000         0.000         0.000         0.000
  WSL2029                    335.181         0.000         0.000         0.000         0.000
  WSL2038                     14.016         0.000         0.000         0.000         0.000
  WSL2039                     20.745         0.000         0.000         0.000         0.000
  WSL2041                     17.567         0.000         0.000         0.000         0.000
  WSL2294                    223.222         0.000         0.000         0.000         0.000
  WSL2295                    224.177         0.000         0.000         0.000         0.000
  WSL2296                    233.443         0.000         0.000         0.000         0.000
  WSL2297                    237.243         0.000         0.000         0.000         0.000
  WSL2298                    227.642         0.000         0.000         0.000         0.000
  WSL2301                    238.306         0.000         0.000         0.000         0.000
  WSL2302                    243.427         0.000         0.000         0.000         0.000
  WSL2441                    222.148         0.000         0.000         0.000         0.000
  WSL2442                    168.798         0.000         0.000         0.000         0.000
  WSL2443                    167.585         0.000         0.000         0.000         0.000
  WSL2444                    164.495         0.000         0.000         0.000         0.000
  WSL2446                    162.729         0.000         0.000         0.000         0.000
  WSL2447                    159.493         0.000         0.000         0.000         0.000
  WSL2448                    155.852         0.000         0.000         0.000         0.000
  WSL2449                    108.905         0.000         0.000         0.000         0.000
  WSL2450                    106.209         0.000         0.000         0.000         0.000
  WSL2451                    104.922         0.000         0.000         0.000         0.000
  WSL2452                    103.761         0.000         0.000         0.000         0.000
  WSL2454                     99.850         0.000         0.000         0.000         0.000
  WSL2478                     98.395         0.000         0.000         0.000         0.000
  WSL2479                     88.979         0.000         0.000         0.000         0.000
  WSL2480                     85.946         0.000         0.000         0.000         0.000
  WSL2482                     81.803         0.000         0.000         0.000         0.000
  WSL2484                     74.506         0.000         0.000         0.000         0.000
  WSL2493                    171.279         0.000         0.000         0.000         0.000
  WSL2867                    356.919         0.000         0.000         0.000         0.000
  WSL2868                    360.874         0.000         0.000         0.000         0.000
  WSL348                     807.370         0.000         0.000         0.000         0.000
  WSL175                     814.231         0.000         0.000         0.000         0.000
  WSL1467                    901.195         0.000         0.000         0.000         0.000
  WSL1473                    910.031         0.000         0.000         0.000         0.000
  XRpipe                     827.424         0.000         0.000         0.000         0.000
  8                            0.000         0.000         0.000         0.000         0.000
  19                           0.000         0.000         0.000         0.000         0.000
  17                           0.000         0.000         0.000         0.000         0.000
  4                            0.000         0.000         0.000         0.000         0.000
  2                          977.798         0.000         0.000         0.000         0.000
  XR-Pump-1                  130.458         0.000         0.000         0.000         0.000
  XR-Pump-3                  121.044         0.000         0.000         0.000         0.000
  XR-Pump-2                  121.044         0.000         0.000         0.000         0.000
  XR-Pump-4                  130.458         0.000         0.000         0.000         0.000
  CC-Pump-1                    0.000         0.000         0.000         0.000         0.000
  CC-Pump-2                   52.447         0.000         0.000         0.000         0.000
  JK-Pump-1                    7.718         0.000         0.000         0.000         0.000
  JK-Pump-2                   37.492         0.000         0.000         0.000         0.000
  

  Analysis begun on:  Wed Mar 20 15:02:34 2019
  Analysis ended on:  Wed Mar 20 15:02:35 2019
  Total elapsed time: 00:00:01