
  EPA STORM WATER MANAGEMENT MODEL - VERSION 5.1 (Build 5.2.0.dev1)
  --------------------------------------------------------------

  
  *********************************************************
  NOTE: The summary statistics displayed in this report are
  based on results found at every computational time step,  
  not just on results from each reporting time step.
  *********************************************************
  
  ****************
  Analysis Options
  ****************
  Flow Units ............... MLD
  Process Models:
    Rainfall/Runoff ........ YES
    RDII ................... NO
    Snowmelt ............... NO
    Groundwater ............ NO
    Flow Routing ........... YES
    Ponding Allowed ........ NO
    Water Quality .......... YES
  Infiltration Method ...... GREEN_AMPT
  Flow Routing Method ...... DYNWAVE
  Starting Date ............ 08/28/2015 08:00:00
  Ending Date .............. 08/28/2015 12:00:00
  Antecedent Dry Days ...... 4.0
  Report Time Step ......... 00:01:00
  Wet Time Step ............ 00:01:00
  Dry Time Step ............ 00:01:00
  Routing Time Step ........ 5.00 sec
  Variable Time Step ....... YES
  Maximum Trials ........... 8
  Number of Threads ........ 1
  Head Tolerance ........... 0.001500 m
  
  
  **************************        Volume         Depth
  Runoff Quantity Continuity     hectare-m            mm
  **************************     ---------       -------
  Total Precipitation ......         5.282        18.725
  Evaporation Loss .........         0.000         0.000
  Infiltration Loss ........         2.346         8.318
  Surface Runoff ...........         1.499         5.316
  Final Storage ............         1.438         5.100
  Continuity Error (%) .....        -0.046
  
  
  **************************           COD         NH3-N            TN            TP            SS
  Runoff Quality Continuity             kg            kg            kg            kg            kg
  **************************    ----------    ----------    ----------    ----------    ----------
  Initial Buildup ..........     13074.240         0.000         0.000         0.000         0.000
  Surface Buildup ..........       105.712         0.000         0.000         0.000         0.000
  Wet Deposition ...........         0.000         0.000         0.000         0.000         0.000
  Sweeping Removal .........         0.000         0.000         0.000         0.000         0.000
  Infiltration Loss ........       219.270         0.000         0.000         0.000         0.000
  BMP Removal ..............         0.000         0.000         0.000         0.000         0.000
  Surface Runoff ...........      2438.248         0.000         0.000         0.000         0.000
  Remaining Buildup ........     10520.649         0.000         0.000         0.000         0.000
  Continuity Error (%) .....         0.014         0.000         0.000         0.000         0.000
  
  
  **************************        Volume        Volume
  Flow Routing Continuity        hectare-m      10^6 ltr
  **************************     ---------     ---------
  Dry Weather Inflow .......         0.000         0.000
  Wet Weather Inflow .......         1.496        14.962
  Groundwater Inflow .......         0.000         0.000
  RDII Inflow ..............         0.000         0.000
  External Inflow ..........         0.561         5.611
  External Outflow .........         1.167        11.671
  Flooding Loss ............         0.840         8.404
  Evaporation Loss .........         0.000         0.000
  Exfiltration Loss ........         0.000         0.000
  Initial Stored Volume ....         0.000         0.000
  Final Stored Volume ......         0.095         0.946
  Continuity Error (%) .....        -2.176
  
  
  **************************           COD         NH3-N            TN            TP            SS
  Quality Routing Continuity            kg            kg            kg            kg            kg
  **************************    ----------    ----------    ----------    ----------    ----------
  Dry Weather Inflow .......         0.000         0.000         0.000         0.000         0.000
  Wet Weather Inflow .......      2435.178         0.000         0.000         0.000         0.000
  Groundwater Inflow .......         0.000         0.000         0.000         0.000         0.000
  RDII Inflow ..............         0.000         0.000         0.000         0.000         0.000
  External Inflow ..........       937.009         0.000         0.000         0.000         0.000
  External Outflow .........      1829.293         0.000         0.000         0.000         0.000
  Flooding Loss ............      1294.045         0.000         0.000         0.000         0.000
  Exfiltration Loss ........         0.000         0.000         0.000         0.000         0.000
  Mass Reacted .............         0.000         0.000         0.000         0.000         0.000
  Initial Stored Mass ......         0.000         0.000         0.000         0.000         0.000
  Final Stored Mass ........       109.868         0.000         0.000         0.000         0.000
  Continuity Error (%) .....         4.121         0.000         0.000         0.000         0.000
  
  
  ***************************
  Time-Step Critical Elements
  ***************************
  Link WSL2448 (51.62%)
  Link WSL1477 (22.36%)
  Link 8 (9.40%)
  Link XRpipe (7.25%)
  Link WSL2867 (1.46%)
  
  
  ********************************
  Highest Flow Instability Indexes
  ********************************
  Link WSL1477 (82)
  Link WSL1516 (62)
  Link WSL1515 (24)
  Link WSL2867 (18)
  Link WSL1475 (17)
  
  
  *************************
  Routing Time Step Summary
  *************************
  Minimum Time Step           :     0.50 sec
  Average Time Step           :     2.26 sec
  Maximum Time Step           :     5.00 sec
  Percent in Steady State     :    -0.00
  Average Iterations per Step :     2.82
  Percent Not Converging      :     8.25
  
  
  ***************************
  Subcatchment Runoff Summary
  ***************************
  
  --------------------------------------------------------------------------------------------------------
                            Total      Total      Total      Total      Total       Total     Peak  Runoff
                           Precip      Runon       Evap      Infil     Runoff      Runoff   Runoff   Coeff
  Subcatchment                 mm         mm         mm         mm         mm    10^6 ltr      MLD
  --------------------------------------------------------------------------------------------------------
  1                         18.73      23.88       0.00      10.38      21.68        0.26     3.17   0.509
  2                         18.73       0.00       0.00       8.22       6.60        0.22     3.65   0.352
  3                         18.73       0.00       0.00       8.29       6.25        0.32     5.21   0.334
  4                         18.73       0.00       0.00       8.18       6.81        0.18     2.98   0.364
  5                         18.73      16.26       0.00      10.01      16.56        0.28     3.57   0.473
  6                         18.73       0.00       0.00       8.28       6.27        0.31     5.07   0.335
  7                         18.73       0.00       0.00       8.05       5.80        9.28   118.82   0.310
  8                         18.73       0.00       0.00       8.26       6.40        0.27     4.45   0.342
  9                         18.73       6.32       0.00       9.13       9.45        0.36     5.12   0.377
  17                        18.73       0.00       0.00       8.24       6.52        0.24     3.93   0.348
  18                        18.73       0.00       0.00       8.26       6.38        0.28     4.54   0.341
  28                        18.73      22.00       0.00      10.57      18.16        0.48     5.67   0.446
  29                        18.73       9.31       0.00       9.25      11.35        0.27     3.43   0.405
  30                        18.73      24.97       0.00      10.50      24.21        0.23     2.82   0.554
  31                        18.73       0.00       0.00       8.23       6.55        0.23     3.82   0.350
  33                        18.73       0.00       0.00       7.95       7.93        0.07     1.13   0.424
  34                        18.73      14.16       0.00       9.88      14.83        0.31     3.97   0.451
  35                        18.73       0.00       0.00       8.21       6.69        0.20     3.33   0.357
  36                        18.73      13.44       0.00      10.05      12.04        0.71     9.14   0.374
  39                        18.73       0.00       0.00       8.23       6.59        0.22     3.69   0.352
  40                        18.73       3.52       0.00       8.76       8.07        0.32     4.77   0.363
  41                        18.73       0.00       0.00       8.12       7.11        0.14     2.26   0.380
  42                        18.73       0.00       0.00       8.16       6.95        0.16     2.61   0.371
  43                        18.73       0.00       0.00       7.70       8.90        0.03     0.53   0.475
  44                        18.73     199.92       0.00      16.06     176.14        0.65     8.48   0.806
  45                        18.73       0.00       0.00       7.99       7.75        0.08     1.31   0.414
  46                        18.73      11.26       0.00       9.54      12.93        0.28     3.60   0.431
  47                        18.73       0.00       0.00       8.00       7.67        0.09     1.39   0.410
  48                        18.73       5.38       0.00       8.79      10.23        0.16     2.33   0.424
  55                        18.73       8.05       0.00       8.89      12.92        0.11     1.47   0.482
  56                        18.73      12.37       0.00       9.65      13.54        0.29     3.69   0.436
  57                        18.73       0.00       0.00       8.28       6.26        0.31     5.13   0.334
  59                        18.73       0.00       0.00       7.94       7.97        0.07     1.09   0.426
  60                        18.73      17.49       0.00       9.58      20.51        0.11     1.37   0.566
  61                        18.73       0.00       0.00       8.43       5.32        0.96    15.02   0.284
  62                        18.73       0.00       0.00       8.43       5.28        1.00    15.70   0.282
  64                        18.73       0.00       0.00       8.02       7.59        0.09     1.49   0.405
  
  
  ****************************
  Subcatchment Washoff Summary
  ****************************
  
  ------------------------------------------------------------------------------------------
                                 COD         NH3-N            TN            TP            SS
  Subcatchment                    kg            kg            kg            kg            kg
  ------------------------------------------------------------------------------------------
  1                           45.688         0.000         0.000         0.000         0.000
  2                            0.000         0.000         0.000         0.000         0.000
  3                            0.000         0.000         0.000         0.000         0.000
  4                           30.889         0.000         0.000         0.000         0.000
  5                           83.349         0.000         0.000         0.000         0.000
  6                           50.133         0.000         0.000         0.000         0.000
  7                         1355.201         0.000         0.000         0.000         0.000
  8                           44.482         0.000         0.000         0.000         0.000
  9                           85.765         0.000         0.000         0.000         0.000
  17                          39.730         0.000         0.000         0.000         0.000
  18                          45.301         0.000         0.000         0.000         0.000
  28                         177.144         0.000         0.000         0.000         0.000
  29                          82.648         0.000         0.000         0.000         0.000
  30                          63.924         0.000         0.000         0.000         0.000
  31                          38.710         0.000         0.000         0.000         0.000
  33                          12.912         0.000         0.000         0.000         0.000
  34                          90.829         0.000         0.000         0.000         0.000
  35                          34.200         0.000         0.000         0.000         0.000
  36                         218.464         0.000         0.000         0.000         0.000
  39                          37.510         0.000         0.000         0.000         0.000
  40                          66.856         0.000         0.000         0.000         0.000
  41                          24.137         0.000         0.000         0.000         0.000
  42                          27.384         0.000         0.000         0.000         0.000
  43                           6.458         0.000         0.000         0.000         0.000
  44                         205.327         0.000         0.000         0.000         0.000
  45                          14.730         0.000         0.000         0.000         0.000
  46                          83.207         0.000         0.000         0.000         0.000
  47                          15.615         0.000         0.000         0.000         0.000
  48                          39.826         0.000         0.000         0.000         0.000
  55                          29.683         0.000         0.000         0.000         0.000
  56                          89.108         0.000         0.000         0.000         0.000
  57                          50.609         0.000         0.000         0.000         0.000
  59                          12.563         0.000         0.000         0.000         0.000
  60                          31.529         0.000         0.000         0.000         0.000
  61                         137.085         0.000         0.000         0.000         0.000
  62                         142.893         0.000         0.000         0.000         0.000
  64                          16.594         0.000         0.000         0.000         0.000
  ------------------------------------------------------------------------------------------
  System                    3530.484         0.000         0.000         0.000         0.000
  
  
  ******************
  Node Depth Summary
  ******************
  
  ---------------------------------------------------------------------------------
                                 Average  Maximum  Maximum  Time of Max    Reported
                                   Depth    Depth      HGL   Occurrence   Max Depth
  Node                 Type       Meters   Meters   Meters  days hr:min      Meters
  ---------------------------------------------------------------------------------
  WS01000070           JUNCTION     0.00     0.00     0.00     0  00:00        0.00
  WS01000323           JUNCTION     0.00     0.00     0.00     0  00:00        0.00
  WS01000533           JUNCTION     0.00     0.00     6.86     0  00:00        0.00
  WS01005172           JUNCTION     0.00     0.00     0.00     0  00:00        0.00
  WS01005181           JUNCTION     0.00     0.00     0.00     0  00:00        0.00
  WS01009841           JUNCTION     0.00     0.00     0.00     0  00:00        0.00
  WS02000078           JUNCTION     0.00     0.00     0.00     0  00:00        0.00
  WS02000112           JUNCTION     0.00     0.00     0.00     0  00:00        0.00
  WS02000136           JUNCTION     0.00     0.00     0.00     0  00:00        0.00
  WS02001211           JUNCTION     0.43     0.52     5.36     0  03:11        0.52
  WS02001212           JUNCTION     0.39     0.52     5.32     0  02:58        0.52
  WS02001213           JUNCTION     0.49     0.62     5.32     0  03:10        0.62
  WS02003059           JUNCTION     0.48     0.67     5.32     0  02:56        0.66
  WS02003060           JUNCTION     0.55     0.75     5.30     0  02:56        0.75
  WS02003066           JUNCTION     0.24     0.40     5.70     0  02:57        0.38
  WS02003067           JUNCTION     0.41     0.65     5.97     0  03:03        0.63
  WS02003071           JUNCTION     0.60     0.82     5.22     0  03:08        0.81
  WS02003072           JUNCTION     0.51     0.73     5.10     0  03:07        0.71
  WS02003073           JUNCTION     0.58     0.87     5.11     0  02:53        0.85
  WS02003076           JUNCTION     0.53     0.82     5.05     0  03:06        0.80
  WS02003077           JUNCTION     0.08     0.12     5.13     0  02:06        0.12
  WS02003078           JUNCTION     0.05     0.08     6.98     0  02:06        0.08
  WS02003079           JUNCTION     0.16     0.25     7.16     0  02:18        0.25
  WS02003093           JUNCTION     0.04     0.07     7.41     0  02:02        0.07
  WS02003094           JUNCTION     0.14     0.19     7.41     0  02:01        0.19
  WS02003098           JUNCTION     0.09     0.13     7.30     0  02:03        0.13
  WS02003099           JUNCTION     0.17     0.26     7.30     0  02:03        0.26
  WS02003102           JUNCTION     0.16     0.25     7.28     0  02:03        0.25
  WS02003103           JUNCTION     0.18     0.27     7.24     0  02:04        0.27
  WS02003104           JUNCTION     0.17     0.26     7.22     0  02:04        0.26
  WS02003106           JUNCTION     0.17     0.26     7.19     0  02:04        0.26
  WS02004050           JUNCTION     0.37     0.50     4.72     0  03:08        0.49
  WS02004053           JUNCTION     0.00     0.00     0.00     0  00:00        0.00
  WS02004136           JUNCTION     0.17     0.21     6.94     0  00:01        0.18
  WS02004139           JUNCTION     0.35     0.41     5.37     0  02:59        0.41
  WS02004401           JUNCTION     0.44     0.69     6.69     0  02:59        0.69
  WS02004402           JUNCTION     0.45     0.71     6.67     0  02:59        0.71
  WS02004403           JUNCTION     0.44     0.70     6.63     0  02:58        0.70
  WS02004404           JUNCTION     0.52     0.78     6.63     0  03:00        0.78
  WS02004405           JUNCTION     0.52     0.78     6.62     0  03:00        0.78
  WS02004406           JUNCTION     0.49     0.74     6.57     0  03:00        0.74
  WS02004407           JUNCTION     0.46     0.70     6.50     0  03:00        0.70
  WS02004409           JUNCTION     0.45     0.67     6.44     0  03:00        0.67
  WS02004410           JUNCTION     0.43     0.64     6.36     0  03:00        0.64
  WS02004411           JUNCTION     0.40     0.60     6.28     0  03:00        0.59
  WS02004412           JUNCTION     0.35     0.53     6.17     0  02:59        0.53
  WS02004413           JUNCTION     0.37     0.56     6.03     0  02:58        0.56
  WS02004997           JUNCTION     5.54     6.69     8.30     0  02:54        6.69
  WS02005192           JUNCTION     0.20     1.04     8.91     0  02:53        0.56
  WS02005193           JUNCTION     0.23     1.37     9.19     0  02:53        0.66
  WS02005196           JUNCTION     0.22     0.91     8.76     0  02:53        0.58
  WS02006109           JUNCTION     0.49     0.77     7.39     0  02:56        0.77
  WS02006110           JUNCTION     0.44     0.68     7.28     0  02:53        0.68
  WS02006111           JUNCTION     0.25     0.41     6.99     0  02:53        0.41
  WS02006112           JUNCTION     0.46     0.71     6.83     0  02:58        0.71
  WS02006113           JUNCTION     0.37     0.56     7.15     0  02:53        0.56
  WS02006115           JUNCTION     0.41     0.67     6.77     0  02:59        0.67
  WS02006116           JUNCTION     0.44     0.70     6.74     0  02:59        0.70
  WS02006183           JUNCTION     0.00     0.00     0.00     0  00:00        0.00
  WS02006228           JUNCTION     0.50     0.82     7.47     0  02:55        0.82
  WS02006229           JUNCTION     0.48     0.82     7.51     0  02:52        0.81
  WS02006230           JUNCTION     0.48     0.88     7.63     0  02:54        0.88
  WS02006231           JUNCTION     0.40     0.88     7.78     0  02:54        0.85
  WS02006232           JUNCTION     0.38     0.87     7.90     0  02:52        0.82
  WS02006234           JUNCTION     0.36     0.87     8.03     0  02:52        0.81
  WS02006235           JUNCTION     0.41     0.94     8.11     0  02:52        0.88
  WS02006238           JUNCTION     0.42     0.95     8.13     0  02:52        0.89
  WS02006239           JUNCTION     0.42     0.95     8.16     0  02:52        0.89
  WS02006242           JUNCTION     0.41     0.93     8.23     0  02:54        0.88
  WS02006240           JUNCTION     0.37     0.91     8.20     0  02:54        0.85
  WS02006243           JUNCTION     0.34     0.89     8.31     0  02:51        0.80
  WS02006245           JUNCTION     0.33     0.81     8.30     0  02:54        0.77
  WS02006247           JUNCTION     0.35     0.80     8.31     0  02:54        0.78
  WS02006248           JUNCTION     0.29     0.72     8.31     0  02:54        0.72
  WS02006249           JUNCTION     0.32     0.81     8.41     0  02:52        0.77
  WS02006251           JUNCTION     0.30     1.40     9.07     0  02:53        0.78
  WS02006253           JUNCTION     0.23     0.68     8.48     0  02:53        0.68
  WS02618401           JUNCTION     0.00     0.00     0.00     0  00:00        0.00
  WS8802               JUNCTION     0.00     0.00     4.38     0  00:00        0.00
  WSA1649              JUNCTION     0.00     0.00     0.00     0  00:00        0.00
  WSF200               JUNCTION     0.23     0.42     5.52     0  02:58        0.38
  XR-Inflow            JUNCTION     5.41     6.55     8.36     0  01:44        6.55
  WS02004114           JUNCTION     5.50     6.66     8.26     0  02:52        6.65
  outfall-2            OUTFALL      0.00     0.00     7.00     0  00:00        0.00
  outfall-5            OUTFALL      0.01     0.12     7.78     0  02:55        0.12
  outfall-14           OUTFALL      0.00     0.00     7.66     0  00:00        0.00
  outfall-16           OUTFALL      0.00     0.00     8.39     0  00:00        0.00
  12                   OUTFALL      0.36     0.49     0.49     0  03:08        0.49
  XR-storage           STORAGE      6.47     7.72     8.22     0  01:23        7.72
  CC-storage           STORAGE      1.59     5.63     8.81     0  02:29        5.63
  JK-storage           STORAGE      1.31     4.80     7.80     0  02:17        4.80
  
  
  *******************
  Node Inflow Summary
  *******************
  
  -------------------------------------------------------------------------------------------------
                                  Maximum  Maximum                  Lateral       Total        Flow
                                  Lateral    Total  Time of Max      Inflow      Inflow     Balance
                                   Inflow   Inflow   Occurrence      Volume      Volume       Error
  Node                 Type           MLD      MLD  days hr:min    10^6 ltr    10^6 ltr     Percent
  -------------------------------------------------------------------------------------------------
  WS01000070           JUNCTION      0.00     0.00     0  00:00           0           0       0.000 ltr
  WS01000323           JUNCTION      0.00     0.00     0  00:00           0           0       0.000 ltr
  WS01000533           JUNCTION      0.00     0.00     0  00:00           0           0       0.000 ltr
  WS01005172           JUNCTION      0.00     0.00     0  00:00           0           0       0.000 ltr
  WS01005181           JUNCTION      0.00     0.00     0  00:00           0           0       0.000 ltr
  WS01009841           JUNCTION      0.00     0.00     0  00:00           0           0       0.000 ltr
  WS02000078           JUNCTION      0.00     0.00     0  00:00           0           0       0.000 ltr
  WS02000112           JUNCTION      0.00     0.00     0  00:00           0           0       0.000 ltr
  WS02000136           JUNCTION      0.00     0.00     0  00:00           0           0       0.000 ltr
  WS02001211           JUNCTION      0.25    35.75     0  00:02      0.0407        4.69       0.548
  WS02001212           JUNCTION      0.21    35.85     0  03:21      0.0346         4.7       0.310
  WS02001213           JUNCTION      0.30    41.31     0  03:20      0.0489        4.74       0.402
  WS02003059           JUNCTION      0.23    38.88     0  03:22      0.0378        4.76       0.499
  WS02003060           JUNCTION      0.16   129.15     0  02:58      0.0252        10.8       0.313
  WS02003066           JUNCTION      0.08   108.92     0  02:58      0.0122        6.03       0.155
  WS02003067           JUNCTION      0.26    86.13     0  02:58      0.0395        6.02       0.113
  WS02003071           JUNCTION      0.35   120.49     0  02:59      0.0538        10.8       0.339
  WS02003072           JUNCTION      0.24   123.69     0  03:08      0.0382        10.8       0.216
  WS02003073           JUNCTION      0.07   135.24     0  03:08     0.00978        11.5       0.210
  WS02003076           JUNCTION      0.72   161.92     0  02:54        0.12        11.6       0.112
  WS02003077           JUNCTION      0.04     9.93     0  02:06      0.0059       0.668       0.107
  WS02003078           JUNCTION      0.03    11.50     0  02:06     0.00419       0.662      -0.062
  WS02003079           JUNCTION      0.04     9.74     0  02:05     0.00561       0.659       0.258
  WS02003093           JUNCTION      0.02     0.08     0  01:50     0.00306     0.00342       0.652
  WS02003094           JUNCTION      5.17     5.19     0  02:01       0.366        0.37       0.754
  WS02003098           JUNCTION      0.02     5.20     0  02:02     0.00293       0.369       0.464
  WS02003099           JUNCTION      0.07     5.26     0  02:03      0.0109       0.379       0.961
  WS02003102           JUNCTION      4.48     9.64     0  02:02       0.275        0.65       0.454
  WS02003103           JUNCTION      0.02     9.65     0  02:03     0.00239        0.65       0.336
  WS02003104           JUNCTION      0.02     9.66     0  02:04     0.00302        0.65       0.284
  WS02003106           JUNCTION      0.05     9.70     0  02:04     0.00727       0.656       0.351
  WS02004050           JUNCTION      0.72   161.47     0  03:07       0.119        11.7       0.489
  WS02004053           JUNCTION      0.00     0.00     0  00:00           0           0       0.000 ltr
  WS02004136           JUNCTION      0.44    32.92     0  01:40      0.0703        4.61       0.067
  WS02004139           JUNCTION      0.38    39.53     0  00:01      0.0619        4.67       0.369
  WS02004401           JUNCTION      0.05    69.61     0  02:57     0.00897        4.55       0.139
  WS02004402           JUNCTION      0.22    69.71     0  02:57      0.0335        4.57       0.129
  WS02004403           JUNCTION      0.23    69.92     0  02:59      0.0349         4.6       0.108
  WS02004404           JUNCTION      0.24    70.14     0  02:59      0.0365        4.64       0.114
  WS02004405           JUNCTION      3.05    71.96     0  02:59       0.193        4.82       0.154
  WS02004406           JUNCTION      5.78    77.72     0  02:59       0.498        5.31       0.223
  WS02004407           JUNCTION      0.11    77.72     0  02:58      0.0171        5.32       0.199
  WS02004409           JUNCTION      3.77    81.20     0  03:01       0.315        5.62       0.168
  WS02004410           JUNCTION      0.15    81.41     0  03:00      0.0226        5.64       0.170
  WS02004411           JUNCTION      0.25    81.96     0  03:01      0.0379        5.66       0.147
  WS02004412           JUNCTION      5.16    85.16     0  03:00       0.324        5.98       0.114
  WS02004413           JUNCTION      0.11    85.05     0  03:01      0.0172        5.99       0.106
  WS02004997           JUNCTION      0.42    63.58     0  02:52      0.0693        7.92       0.527
  WS02005192           JUNCTION      5.24     5.69     0  02:53        0.33       0.331       0.105
  WS02005193           JUNCTION      0.09     9.70     0  02:57      0.0146       0.373       0.221
  WS02005196           JUNCTION      0.12     7.04     0  02:53       0.019       0.354       0.238
  WS02006109           JUNCTION      0.08    65.93     0  02:55      0.0135        4.11       0.199
  WS02006110           JUNCTION      0.08    65.88     0  02:55      0.0132        4.12       0.187
  WS02006111           JUNCTION      0.24    69.47     0  02:56      0.0366        4.48       0.061
  WS02006112           JUNCTION      0.18    69.67     0  02:56      0.0273        4.51       0.158
  WS02006113           JUNCTION      5.38    69.21     0  02:56       0.345        4.45       0.130
  WS02006115           JUNCTION      0.08    69.67     0  02:56      0.0134        4.52       0.150
  WS02006116           JUNCTION      0.24    69.68     0  02:57       0.036        4.55       0.147
  WS02006183           JUNCTION      0.00     0.00     0  00:00           0           0       0.000 ltr
  WS02006228           JUNCTION      8.64    65.79     0  02:55       0.679         4.1       0.145
  WS02006229           JUNCTION      0.13    57.26     0  02:55        0.02        3.43       0.132
  WS02006230           JUNCTION      0.07    57.22     0  02:54      0.0116        3.41       0.118
  WS02006231           JUNCTION      0.13    57.13     0  02:54      0.0205         3.4       0.060
  WS02006232           JUNCTION      3.74    56.94     0  02:54       0.236        3.39       0.061
  WS02006234           JUNCTION      0.14    54.62     0  02:54      0.0216        3.15       0.062
  WS02006235           JUNCTION      0.14    54.50     0  02:54      0.0223        3.13       0.040
  WS02006238           JUNCTION      0.15    54.37     0  02:54      0.0235        3.11       0.062
  WS02006239           JUNCTION      0.11    34.97     0  03:08      0.0174        2.05       0.153
  WS02006242           JUNCTION      0.08    33.61     0  03:07      0.0129        2.02       0.185
  WS02006240           JUNCTION      0.06    34.07     0  03:07     0.00992        2.03       0.119
  WS02006243           JUNCTION      0.17    35.74     0  02:50      0.0269        2.01       0.116
  WS02006245           JUNCTION      0.07    37.75     0  02:51      0.0113        1.99       0.099
  WS02006247           JUNCTION      3.31    39.21     0  02:51       0.287        1.98       0.103
  WS02006248           JUNCTION      0.12    41.23     0  02:55      0.0192        1.74       0.048
  WS02006249           JUNCTION      0.19    40.95     0  02:54      0.0286        1.73       0.093
  WS02006251           JUNCTION      1.53    40.60     0  02:54       0.117         1.7       0.073
  WS02006253           JUNCTION      0.11    40.35     0  02:54      0.0173        1.59       0.028
  WS02618401           JUNCTION      0.00     0.00     0  00:00           0           0       0.000 ltr
  WS8802               JUNCTION      0.00     0.00     0  00:00           0           0       0.000 ltr
  WSA1649              JUNCTION      0.00     0.00     0  00:00           0           0       0.000 ltr
  WSF200               JUNCTION      0.14    99.41     0  03:03      0.0216        6.04      -0.028
  XR-Inflow            JUNCTION    137.91   137.91     0  02:48        12.6        12.6       0.209
  WS02004114           JUNCTION      0.57    64.13     0  02:00      0.0916        7.97       0.338
  outfall-2            OUTFALL       0.00     0.00     0  00:00           0           0       0.000 ltr
  outfall-5            OUTFALL       0.00    14.36     0  02:55           0      0.0499       0.000
  outfall-14           OUTFALL       0.00     0.00     0  00:00           0           0       0.000 ltr
  outfall-16           OUTFALL       0.00     0.00     0  00:00           0           0       0.000 ltr
  12                   OUTFALL       0.00   134.93     0  03:08           0        11.6       0.000
  XR-storage           STORAGE       0.00    64.13     0  02:52           0        7.94      -0.728
  CC-storage           STORAGE      16.79    16.79     0  02:00        1.24        1.24     -12.795
  JK-storage           STORAGE      16.71    16.71     0  02:00        1.18        1.18     -12.396
  
  
  **********************
  Node Surcharge Summary
  **********************
  
  Surcharging occurs when water rises above the top of the highest conduit.
  ---------------------------------------------------------------------
                                               Max. Height   Min. Depth
                                   Hours       Above Crown    Below Rim
  Node                 Type      Surcharged         Meters       Meters
  ---------------------------------------------------------------------
  WS01000070           JUNCTION        4.00          0.000        0.000
  WS01000323           JUNCTION        4.00          0.000        0.000
  WS01000533           JUNCTION        4.00          0.000        2.147
  WS01005172           JUNCTION        4.00          0.000        0.000
  WS01005181           JUNCTION        4.00          0.000        0.000
  WS01009841           JUNCTION        4.00          0.000        0.000
  WS02000078           JUNCTION        4.00          0.000        0.000
  WS02000112           JUNCTION        4.00          0.000        0.000
  WS02000136           JUNCTION        4.00          0.000        0.000
  WS02004053           JUNCTION        4.00          0.000        0.000
  WS02004997           JUNCTION        3.07          5.792        0.208
  WS02005192           JUNCTION        0.01          0.442        2.377
  WS02005193           JUNCTION        0.05          0.773        1.844
  WS02005196           JUNCTION        0.01          0.311        2.395
  WS02006183           JUNCTION        4.00          0.000        0.000
  WS02006228           JUNCTION        0.13          0.018        2.213
  WS02006229           JUNCTION        0.12          0.015        2.439
  WS02006231           JUNCTION        0.34          0.176        1.367
  WS02006232           JUNCTION        0.28          0.171        1.318
  WS02006234           JUNCTION        0.24          0.172        1.085
  WS02006235           JUNCTION        0.27          0.243        1.051
  WS02006238           JUNCTION        0.28          0.255        1.179
  WS02006239           JUNCTION        0.29          0.254        1.075
  WS02006242           JUNCTION        0.28          0.228        0.621
  WS02006240           JUNCTION        0.26          0.205        1.198
  WS02006243           JUNCTION        0.22          0.189        0.591
  WS02006245           JUNCTION        0.16          0.109        0.746
  WS02006247           JUNCTION        0.17          0.102        0.658
  WS02006249           JUNCTION        0.07          0.108        0.280
  WS02006251           JUNCTION        0.06          0.700        0.810
  WS02618401           JUNCTION        4.00          0.000        0.000
  WS8802               JUNCTION        4.00          0.000        4.942
  WSA1649              JUNCTION        4.00          0.000        0.000
  XR-Inflow            JUNCTION        3.04          5.650        0.000
  WS02004114           JUNCTION        3.08          5.756        0.759
  
  
  *********************
  Node Flooding Summary
  *********************
  
  Flooding refers to all water that overflows a node, whether it ponds or not.
  --------------------------------------------------------------------------
                                                             Total   Maximum
                                 Maximum   Time of Max       Flood    Ponded
                        Hours       Rate    Occurrence      Volume     Depth
  Node                 Flooded       MLD   days hr:min    10^6 ltr    Meters
  --------------------------------------------------------------------------
  XR-Inflow               2.26     74.76      0  02:48       4.725     0.000
  XR-storage              2.61     37.94      0  01:30       3.399     0.000
  CC-storage              0.24     14.17      0  02:29       0.117     0.000
  JK-storage              0.36     15.68      0  02:17       0.164     0.000
  
  
  **********************
  Storage Volume Summary
  **********************
  
  --------------------------------------------------------------------------------------------------
                         Average     Avg  Evap Exfil       Maximum     Max    Time of Max    Maximum
                          Volume    Pcnt  Pcnt  Pcnt        Volume    Pcnt     Occurrence    Outflow
  Storage Unit           1000 m3    Full  Loss  Loss       1000 m3    Full    days hr:min        MLD
  --------------------------------------------------------------------------------------------------
  XR-storage               0.053      84     0     0         0.063     100       0  01:23      32.48
  CC-storage               0.045      28     0     0         0.159     100       0  02:29      34.56
  JK-storage               0.037      27     0     0         0.136     100       0  02:17      34.56
  
  
  ***********************
  Outfall Loading Summary
  ***********************
  
  ---------------------------------------------------------------------------------------------------------------------------------
                         Flow       Avg       Max       Total         Total         Total         Total         Total         Total
                         Freq      Flow      Flow      Volume           COD         NH3-N            TN            TP            SS
  Outfall Node           Pcnt       MLD       MLD    10^6 ltr            kg            kg            kg            kg            kg
  ---------------------------------------------------------------------------------------------------------------------------------
  outfall-2              0.00      0.00      0.00       0.000         0.000         0.000         0.000         0.000         0.000
  outfall-5             12.56      7.68     14.36       0.050         6.983         0.000         0.000         0.000         0.000
  outfall-14             0.00      0.00      0.00       0.000         0.000         0.000         0.000         0.000         0.000
  outfall-16             0.00      0.00      0.00       0.000         0.000         0.000         0.000         0.000         0.000
  12                    99.98     82.67    134.93      11.621      1822.345         0.000         0.000         0.000         0.000
  ---------------------------------------------------------------------------------------------------------------------------------
  System                22.51     90.35    142.12      11.671      1829.328         0.000         0.000         0.000         0.000
  
  
  ********************
  Link Flow Summary
  ********************
  
  -----------------------------------------------------------------------------
                                 Maximum  Time of Max   Maximum    Max/    Max/
                                  |Flow|   Occurrence   |Veloc|    Full    Full
  Link                 Type          MLD  days hr:min     m/sec    Flow   Depth
  -----------------------------------------------------------------------------
  WSL49                CONDUIT    161.20     0  02:54      2.60    2.00    0.68
  WSL1465              CONDUIT     40.58     0  03:21      1.99    0.37    0.70
  WSL1472              CONDUIT    123.48     0  03:08      1.99    1.41    0.64
  WSL1475              CONDUIT    160.75     0  03:07      3.06    1.72    0.45
  WSL1476              CONDUIT      9.84     0  02:06      0.46    0.05    0.57
  WSL1477              CONDUIT     11.48     0  02:06      2.28    0.45    0.27
  WSL1490              CONDUIT     35.64     0  03:21      1.60    0.58    0.52
  WSL1491              CONDUIT     41.03     0  03:20      1.86    0.24    0.57
  WSL1492              CONDUIT     38.66     0  03:22      1.71    0.60    0.64
  WSL1507              CONDUIT      0.06     0  01:50      0.11    0.00    0.17
  WSL1508              CONDUIT      5.19     0  02:02      0.82    0.15    0.20
  WSL1512              CONDUIT      5.20     0  02:03      0.56    0.04    0.19
  WSL1513              CONDUIT      5.27     0  02:05      0.45    0.31    0.32
  WSL1515              CONDUIT    108.85     0  02:58      2.83    1.06    0.42
  WSL1516              CONDUIT      9.90     0  02:06      3.95    0.03    0.16
  WSL1518              CONDUIT      9.63     0  02:03      0.80    0.19    0.32
  WSL1519              CONDUIT      9.66     0  02:04      0.79    0.24    0.32
  WSL1521              CONDUIT      9.71     0  02:05      0.85    0.28    0.31
  WSL1543              CONDUIT      9.64     0  02:04      0.76    0.30    0.33
  WSL1961              CONDUIT     39.15     0  00:01      3.75    0.08    0.30
  WSL1964              CONDUIT     35.50     0  00:02      1.79    0.19    0.39
  WSL2010              CONDUIT     69.72     0  02:59      1.38    0.89    0.70
  WSL2011              CONDUIT     69.93     0  02:59      1.30    0.45    0.74
  WSL2012              CONDUIT     70.13     0  02:59      1.24    1.07    0.78
  WSL2013              CONDUIT     71.94     0  02:59      1.30    1.79    0.76
  WSL2014              CONDUIT     77.62     0  02:58      1.49    1.24    0.72
  WSL2015              CONDUIT     77.81     0  03:01      1.57    1.04    0.69
  WSL2016              CONDUIT     81.29     0  03:00      1.72    0.94    0.66
  WSL2017              CONDUIT     81.76     0  03:01      1.86    0.99    0.62
  WSL2018              CONDUIT     84.96     0  03:01      2.30    0.51    0.54
  WSL2019              CONDUIT     85.91     0  02:58      2.16    0.51    0.60
  WSL2028              CONDUIT     69.51     0  02:57      1.39    0.74    0.70
  WSL2029              CONDUIT     82.08     0  03:00      2.10    1.04    0.56
  WSL2038              CONDUIT      5.76     0  02:57      0.70    0.29    1.00
  WSL2039              CONDUIT     10.30     0  02:57      1.08    0.53    1.00
  WSL2041              CONDUIT      9.61     0  02:57      0.80    0.47    1.00
  WSL2294              CONDUIT     65.81     0  02:55      1.59    2.21    0.90
  WSL2295              CONDUIT     65.89     0  02:56      1.82    2.96    0.78
  WSL2296              CONDUIT     69.51     0  02:56      2.17    0.39    0.69
  WSL2297              CONDUIT     69.59     0  02:56      1.42    1.33    0.69
  WSL2298              CONDUIT     69.26     0  02:56      2.53    3.19    0.61
  WSL2301              CONDUIT     69.48     0  02:57      1.43    0.64    0.68
  WSL2302              CONDUIT     69.56     0  02:57      1.40    0.85    0.70
  WSL2441              CONDUIT     65.85     0  02:55      1.52    1.69    0.98
  WSL2442              CONDUIT     57.14     0  02:55      1.72    1.46    1.00
  WSL2443              CONDUIT     57.16     0  02:54      1.72    0.89    1.00
  WSL2444              CONDUIT     57.01     0  02:54      1.79    0.90    1.00
  WSL2446              CONDUIT     54.63     0  02:54      1.80    0.94    1.00
  WSL2447              CONDUIT     54.49     0  02:54      1.72    2.80    1.00
  WSL2448              CONDUIT     54.37     0  02:54      1.64    1.53    1.00
  WSL2449              CONDUIT     35.61     0  03:08      1.30    1.24    1.00
  WSL2450              CONDUIT     34.87     0  03:08      1.29    0.72    1.00
  WSL2451              CONDUIT     34.01     0  03:07      1.23    2.22    1.00
  WSL2452              CONDUIT     33.53     0  03:07      1.24    0.64    1.00
  WSL2454              CONDUIT     35.58     0  02:50      1.36    0.83    1.00
  WSL2478              CONDUIT     37.69     0  02:51      1.30    1.33    1.00
  WSL2479              CONDUIT     35.93     0  02:51      1.25    0.68    1.00
  WSL2480              CONDUIT     41.12     0  02:55      1.32    1.90    1.00
  WSL2482              CONDUIT     40.78     0  02:54      1.32    1.06    1.00
  WSL2484              CONDUIT     39.34     0  02:54      1.46    0.55    0.99
  WSL2493              CONDUIT     57.22     0  02:55      1.32    0.96    1.00
  WSL2867              CONDUIT     99.29     0  03:03      3.91    0.20    0.33
  WSL2868              CONDUIT     93.97     0  02:58      2.19    0.18    0.47
  WSL348               CONDUIT     63.17     0  02:52      1.88    0.58    1.00
  WSL175               CONDUIT     63.58     0  02:52      2.40    2.14    1.00
  WSL1467              CONDUIT    120.18     0  02:59      1.88    0.64    0.65
  WSL1473              CONDUIT    128.82     0  03:08      2.16    0.53    0.65
  XRpipe               CONDUIT     64.13     0  02:52      8.80    0.16    1.00
  8                    CONDUIT     14.36     0  02:55      5.37    0.19    0.30
  19                   CONDUIT      0.00     0  00:00      0.00    0.00    0.00
  17                   CONDUIT      0.00     0  00:00      0.00    0.00    0.00
  4                    CONDUIT      0.00     0  00:00      0.00    0.00    0.00
  2                    CONDUIT    134.93     0  03:08      4.05    0.49    0.49
  XR-Pump-1            PUMP         8.12     0  00:01              1.00
  XR-Pump-3            PUMP         8.12     0  00:01              1.00
  XR-Pump-2            PUMP         8.12     0  00:01              1.00
  XR-Pump-4            PUMP         8.12     0  00:01              1.00
  CC-Pump-1            PUMP        17.28     0  02:50              1.00
  CC-Pump-2            PUMP        17.28     0  01:40              1.00
  JK-Pump-1            PUMP        17.28     0  02:40              1.00
  JK-Pump-2            PUMP        17.28     0  01:40              1.00
  
  
  ***************************
  Flow Classification Summary
  ***************************
  
  -------------------------------------------------------------------------------------
                      Adjusted    ---------- Fraction of Time in Flow Class ---------- 
                       /Actual         Up    Down  Sub   Sup   Up    Down  Norm  Inlet 
  Conduit               Length    Dry  Dry   Dry   Crit  Crit  Crit  Crit  Ltd   Ctrl  
  -------------------------------------------------------------------------------------
  WSL49                   1.00   0.00  0.00  0.00  0.99  0.01  0.00  0.00  0.00  0.00
  WSL1465                 1.00   0.00  0.00  0.00  0.99  0.01  0.00  0.00  0.07  0.00
  WSL1472                 1.00   0.00  0.00  0.00  1.00  0.00  0.00  0.00  0.00  0.00
  WSL1475                 1.00   0.00  0.00  0.00  0.13  0.87  0.00  0.00  0.01  0.00
  WSL1476                 1.00   0.00  0.00  0.00  1.00  0.00  0.00  0.00  1.00  0.00
  WSL1477                 1.00   0.00  0.00  0.00  0.00  1.00  0.00  0.00  0.44  0.00
  WSL1490                 1.00   0.00  0.00  0.00  1.00  0.00  0.00  0.00  0.00  0.00
  WSL1491                 1.00   0.00  0.00  0.00  1.00  0.00  0.00  0.00  0.08  0.00
  WSL1492                 1.00   0.00  0.00  0.00  1.00  0.00  0.00  0.00  0.02  0.00
  WSL1507                 1.00   0.00  0.00  0.00  1.00  0.00  0.00  0.00  0.50  0.00
  WSL1508                 1.00   0.00  0.00  0.00  1.00  0.00  0.00  0.00  0.00  0.00
  WSL1512                 1.00   0.00  0.00  0.00  1.00  0.00  0.00  0.00  1.00  0.00
  WSL1513                 1.00   0.00  0.00  0.00  1.00  0.00  0.00  0.00  0.00  0.00
  WSL1515                 1.00   0.00  0.00  0.00  0.13  0.87  0.00  0.00  0.05  0.00
  WSL1516                 1.00   0.00  0.00  0.00  0.00  1.00  0.00  0.00  1.00  0.00
  WSL1518                 1.00   0.00  0.00  0.00  1.00  0.00  0.00  0.00  0.44  0.00
  WSL1519                 1.00   0.00  0.00  0.00  1.00  0.00  0.00  0.00  0.33  0.00
  WSL1521                 1.00   0.00  0.00  0.00  1.00  0.00  0.00  0.00  0.02  0.00
  WSL1543                 1.00   0.00  0.00  0.00  1.00  0.00  0.00  0.00  0.02  0.00
  WSL1961                 1.00   0.00  0.00  0.00  0.03  0.97  0.00  0.00  0.99  0.00
  WSL1964                 1.00   0.00  0.00  0.00  1.00  0.00  0.00  0.00  0.10  0.00
  WSL2010                 1.00   0.00  0.00  0.00  1.00  0.00  0.00  0.00  0.02  0.00
  WSL2011                 1.00   0.00  0.00  0.00  1.00  0.00  0.00  0.00  0.18  0.00
  WSL2012                 1.00   0.00  0.00  0.00  1.00  0.00  0.00  0.00  0.01  0.00
  WSL2013                 1.00   0.00  0.00  0.00  1.00  0.00  0.00  0.00  0.00  0.00
  WSL2014                 1.00   0.00  0.00  0.00  1.00  0.00  0.00  0.00  0.00  0.00
  WSL2015                 1.00   0.00  0.00  0.00  1.00  0.00  0.00  0.00  0.02  0.00
  WSL2016                 1.00   0.00  0.00  0.00  1.00  0.00  0.00  0.00  0.05  0.00
  WSL2017                 1.00   0.00  0.00  0.00  1.00  0.00  0.00  0.00  0.04  0.00
  WSL2018                 1.00   0.00  0.00  0.00  0.01  0.99  0.00  0.00  0.09  0.00
  WSL2019                 1.00   0.00  0.00  0.00  0.61  0.39  0.00  0.00  0.11  0.00
  WSL2028                 1.00   0.00  0.00  0.00  1.00  0.00  0.00  0.00  0.06  0.00
  WSL2029                 1.00   0.00  0.00  0.00  0.61  0.39  0.00  0.00  0.00  0.00
  WSL2038                 1.00   0.00  0.00  0.00  1.00  0.00  0.00  0.00  0.01  0.00
  WSL2039                 1.00   0.00  0.00  0.00  0.91  0.09  0.00  0.00  0.01  0.00
  WSL2041                 1.00   0.00  0.00  0.00  1.00  0.00  0.00  0.00  0.21  0.00
  WSL2294                 1.00   0.00  0.00  0.00  1.00  0.00  0.00  0.00  0.00  0.00
  WSL2295                 1.00   0.00  0.00  0.00  1.00  0.00  0.00  0.00  0.00  0.00
  WSL2296                 1.00   0.00  0.00  0.00  0.38  0.62  0.00  0.00  0.51  0.00
  WSL2297                 1.00   0.00  0.00  0.00  1.00  0.00  0.00  0.00  0.00  0.00
  WSL2298                 1.00   0.00  0.00  0.00  0.05  0.95  0.00  0.00  0.00  0.00
  WSL2301                 1.00   0.00  0.00  0.00  1.00  0.00  0.00  0.00  0.09  0.00
  WSL2302                 1.00   0.00  0.00  0.00  1.00  0.00  0.00  0.00  0.03  0.00
  WSL2441                 1.00   0.00  0.00  0.00  1.00  0.00  0.00  0.00  0.01  0.00
  WSL2442                 1.00   0.00  0.00  0.00  1.00  0.00  0.00  0.00  0.11  0.00
  WSL2443                 1.00   0.00  0.00  0.00  1.00  0.00  0.00  0.00  0.40  0.00
  WSL2444                 1.00   0.00  0.00  0.00  0.53  0.47  0.00  0.00  0.26  0.00
  WSL2446                 1.00   0.00  0.00  0.00  0.58  0.42  0.00  0.00  0.16  0.00
  WSL2447                 1.00   0.00  0.00  0.00  1.00  0.00  0.00  0.00  0.00  0.00
  WSL2448                 1.00   0.00  0.00  0.00  1.00  0.00  0.00  0.00  0.01  0.00
  WSL2449                 1.00   0.00  0.00  0.00  1.00  0.00  0.00  0.00  0.04  0.00
  WSL2450                 1.00   0.00  0.00  0.00  1.00  0.00  0.00  0.00  0.32  0.00
  WSL2451                 1.00   0.00  0.00  0.00  1.00  0.00  0.00  0.00  0.00  0.00
  WSL2452                 1.00   0.00  0.00  0.00  1.00  0.00  0.00  0.00  0.47  0.00
  WSL2454                 1.00   0.00  0.00  0.00  1.00  0.00  0.00  0.00  0.07  0.00
  WSL2478                 1.00   0.00  0.00  0.00  1.00  0.00  0.00  0.00  0.00  0.00
  WSL2479                 1.00   0.00  0.00  0.00  1.00  0.00  0.00  0.00  0.45  0.00
  WSL2480                 1.00   0.00  0.00  0.00  1.00  0.00  0.00  0.00  0.00  0.00
  WSL2482                 1.00   0.00  0.00  0.00  1.00  0.00  0.00  0.00  0.48  0.00
  WSL2484                 1.00   0.00  0.00  0.00  0.99  0.01  0.00  0.00  0.54  0.00
  WSL2493                 1.00   0.00  0.00  0.00  1.00  0.00  0.00  0.00  0.05  0.00
  WSL2867                 1.00   0.00  0.00  0.00  0.00  1.00  0.00  0.00  0.24  0.00
  WSL2868                 1.00   0.00  0.00  0.00  0.90  0.10  0.00  0.00  0.67  0.00
  WSL348                  1.00   0.00  0.00  0.00  0.98  0.02  0.00  0.00  0.01  0.00
  WSL175                  1.00   0.00  0.00  0.00  0.90  0.10  0.00  0.00  0.01  0.00
  WSL1467                 1.00   0.00  0.00  0.00  1.00  0.00  0.00  0.00  0.12  0.00
  WSL1473                 1.00   0.00  0.00  0.00  1.00  0.00  0.00  0.00  0.04  0.00
  XRpipe                  1.00   0.00  0.00  0.00  0.92  0.08  0.00  0.00  0.04  0.00
  8                       1.00   0.87  0.00  0.00  0.00  0.13  0.00  0.00  0.03  0.00
  19                      1.00   1.00  0.00  0.00  0.00  0.00  0.00  0.00  0.00  0.00
  17                      1.00   1.00  0.00  0.00  0.00  0.00  0.00  0.00  0.00  0.00
  4                       1.00   1.00  0.00  0.00  0.00  0.00  0.00  0.00  0.00  0.00
  2                       1.00   0.00  0.00  0.00  0.00  1.00  0.00  0.00  0.31  0.00
  
  
  *************************
  Conduit Surcharge Summary
  *************************
  
  ----------------------------------------------------------------------------
                                                           Hours        Hours 
                         --------- Hours Full --------   Above Full   Capacity
  Conduit                Both Ends  Upstream  Dnstream   Normal Flow   Limited
  ----------------------------------------------------------------------------
  WSL49                       0.01      0.01      0.01      1.75         0.01
  WSL1472                     0.01      0.01      0.01      1.39         0.01
  WSL1475                     0.01      0.01      0.01      1.38         0.01
  WSL1476                     0.01      0.01      0.09      0.01         0.01
  WSL1515                     0.01      0.01      0.01      0.01         0.01
  WSL2012                     0.01      0.01      0.01      0.26         0.01
  WSL2013                     0.01      0.01      0.01      1.40         0.01
  WSL2014                     0.01      0.01      0.01      0.76         0.01
  WSL2015                     0.01      0.01      0.01      0.21         0.01
  WSL2029                     0.01      0.01      0.01      0.17         0.01
  WSL2038                     0.01      0.01      0.01      0.01         0.01
  WSL2039                     0.05      0.05      0.06      0.01         0.01
  WSL2041                     0.01      0.01      0.05      0.01         0.01
  WSL2294                     0.01      0.01      0.01      1.53         0.01
  WSL2295                     0.01      0.01      0.01      1.88         0.01
  WSL2297                     0.01      0.01      0.01      0.88         0.01
  WSL2298                     0.01      0.01      0.01      1.94         0.01
  WSL2441                     0.01      0.13      0.01      1.23         0.01
  WSL2442                     0.42      0.52      0.42      1.00         0.42
  WSL2443                     0.34      0.34      0.52      0.01         0.01
  WSL2444                     0.28      0.28      0.34      0.01         0.01
  WSL2446                     0.24      0.24      0.28      0.01         0.01
  WSL2447                     0.24      0.27      0.24      1.61         0.24
  WSL2448                     0.27      0.28      0.27      1.02         0.27
  WSL2449                     0.28      0.29      0.28      0.53         0.26
  WSL2450                     0.26      0.26      0.29      0.01         0.01
  WSL2451                     0.26      0.28      0.26      1.43         0.26
  WSL2452                     0.22      0.22      0.28      0.01         0.01
  WSL2454                     0.16      0.16      0.22      0.01         0.01
  WSL2478                     0.16      0.17      0.16      0.38         0.13
  WSL2479                     0.06      0.06      0.17      0.01         0.01
  WSL2480                     0.06      0.07      0.06      0.94         0.06
  WSL2482                     0.06      0.06      0.07      0.05         0.04
  WSL2484                     0.01      0.01      0.06      0.01         0.01
  WSL2493                     0.12      0.12      0.13      0.01         0.01
  WSL348                      3.04      3.04      3.07      0.01         0.01
  WSL175                      3.07      3.07      3.08      2.65         2.72
  XRpipe                      3.08      3.08      3.45      0.01         0.01
  
  
  ***************
  Pumping Summary
  ***************
  
  ---------------------------------------------------------------------------------------------------------
                                                  Min       Avg       Max     Total     Power    % Time Off
                        Percent   Number of      Flow      Flow      Flow    Volume     Usage    Pump Curve
  Pump                 Utilized   Start-Ups       MLD       MLD       MLD  10^6 ltr     Kw-hr    Low   High
  ---------------------------------------------------------------------------------------------------------
  XR-Pump-1               95.81           3      0.00      7.71      8.12     1.178      7.21    0.0    0.0
  XR-Pump-3               87.47           3      0.00      7.65      8.12     1.065      6.12    0.0    0.0
  XR-Pump-2               91.64           3      0.00      7.70      8.12     1.121      7.05    0.0    0.0
  XR-Pump-4               95.81           3      0.00      7.71      8.12     1.178      7.21    0.0    0.0
  CC-Pump-1               20.84           1      0.00     10.86     17.28     0.329      3.34    0.0    0.0
  CC-Pump-2               49.98           3      0.00     11.65     17.28     0.874      8.89    0.0    0.0
  JK-Pump-1               16.67           1      0.00     10.87     17.28     0.297      2.94    0.0    0.0
  JK-Pump-2               45.83           3      0.00     10.72     17.28     0.748      8.04    0.0    0.0
  
  
  ***************************
  Link Pollutant Load Summary
  ***************************
  
  ------------------------------------------------------------------------------------------
                                 COD         NH3-N            TN            TP            SS
  Link                            kg            kg            kg            kg            kg
  ------------------------------------------------------------------------------------------
  WSL49                     1791.775         0.000         0.000         0.000         0.000
  WSL1465                    649.460         0.000         0.000         0.000         0.000
  WSL1472                   1651.479         0.000         0.000         0.000         0.000
  WSL1475                   1809.937         0.000         0.000         0.000         0.000
  WSL1476                    138.657         0.000         0.000         0.000         0.000
  WSL1477                    136.512         0.000         0.000         0.000         0.000
  WSL1490                    636.371         0.000         0.000         0.000         0.000
  WSL1491                    640.530         0.000         0.000         0.000         0.000
  WSL1492                    645.821         0.000         0.000         0.000         0.000
  WSL1507                      0.731         0.000         0.000         0.000         0.000
  WSL1508                     87.597         0.000         0.000         0.000         0.000
  WSL1512                     87.912         0.000         0.000         0.000         0.000
  WSL1513                     89.272         0.000         0.000         0.000         0.000
  WSL1515                    994.310         0.000         0.000         0.000         0.000
  WSL1516                    137.165         0.000         0.000         0.000         0.000
  WSL1518                    134.168         0.000         0.000         0.000         0.000
  WSL1519                    134.683         0.000         0.000         0.000         0.000
  WSL1521                    135.670         0.000         0.000         0.000         0.000
  WSL1543                    134.342         0.000         0.000         0.000         0.000
  WSL1961                    624.809         0.000         0.000         0.000         0.000
  WSL1964                    632.495         0.000         0.000         0.000         0.000
  WSL2010                    620.810         0.000         0.000         0.000         0.000
  WSL2011                    625.682         0.000         0.000         0.000         0.000
  WSL2012                    630.820         0.000         0.000         0.000         0.000
  WSL2013                    662.486         0.000         0.000         0.000         0.000
  WSL2014                    840.777         0.000         0.000         0.000         0.000
  WSL2015                    841.602         0.000         0.000         0.000         0.000
  WSL2016                    928.944         0.000         0.000         0.000         0.000
  WSL2017                    930.947         0.000         0.000         0.000         0.000
  WSL2018                    987.160         0.000         0.000         0.000         0.000
  WSL2019                    988.924         0.000         0.000         0.000         0.000
  WSL2028                    616.244         0.000         0.000         0.000         0.000
  WSL2029                    935.775         0.000         0.000         0.000         0.000
  WSL2038                     53.861         0.000         0.000         0.000         0.000
  WSL2039                     61.223         0.000         0.000         0.000         0.000
  WSL2041                     57.933         0.000         0.000         0.000         0.000
  WSL2294                    596.889         0.000         0.000         0.000         0.000
  WSL2295                    597.604         0.000         0.000         0.000         0.000
  WSL2296                    606.616         0.000         0.000         0.000         0.000
  WSL2297                    610.066         0.000         0.000         0.000         0.000
  WSL2298                    600.997         0.000         0.000         0.000         0.000
  WSL2301                    611.046         0.000         0.000         0.000         0.000
  WSL2302                    615.918         0.000         0.000         0.000         0.000
  WSL2441                    596.141         0.000         0.000         0.000         0.000
  WSL2442                    384.761         0.000         0.000         0.000         0.000
  WSL2443                    383.475         0.000         0.000         0.000         0.000
  WSL2444                    380.355         0.000         0.000         0.000         0.000
  WSL2446                    378.424         0.000         0.000         0.000         0.000
  WSL2447                    375.015         0.000         0.000         0.000         0.000
  WSL2448                    371.315         0.000         0.000         0.000         0.000
  WSL2449                    287.765         0.000         0.000         0.000         0.000
  WSL2450                    285.359         0.000         0.000         0.000         0.000
  WSL2451                    284.269         0.000         0.000         0.000         0.000
  WSL2452                    282.699         0.000         0.000         0.000         0.000
  WSL2454                    278.665         0.000         0.000         0.000         0.000
  WSL2478                    276.926         0.000         0.000         0.000         0.000
  WSL2479                    227.573         0.000         0.000         0.000         0.000
  WSL2480                    231.340         0.000         0.000         0.000         0.000
  WSL2482                    227.273         0.000         0.000         0.000         0.000
  WSL2484                    195.730         0.000         0.000         0.000         0.000
  WSL2493                    387.410         0.000         0.000         0.000         0.000
  WSL2867                    994.661         0.000         0.000         0.000         0.000
  WSL2868                    998.734         0.000         0.000         0.000         0.000
  WSL348                    1159.401         0.000         0.000         0.000         0.000
  WSL175                    1166.108         0.000         0.000         0.000         0.000
  WSL1467                   1647.416         0.000         0.000         0.000         0.000
  WSL1473                   1654.440         0.000         0.000         0.000         0.000
  XRpipe                    1178.563         0.000         0.000         0.000         0.000
  8                            6.983         0.000         0.000         0.000         0.000
  19                           0.000         0.000         0.000         0.000         0.000
  17                           0.000         0.000         0.000         0.000         0.000
  4                            0.000         0.000         0.000         0.000         0.000
  2                         1822.345         0.000         0.000         0.000         0.000
  XR-Pump-1                  159.286         0.000         0.000         0.000         0.000
  XR-Pump-3                  145.572         0.000         0.000         0.000         0.000
  XR-Pump-2                  149.872         0.000         0.000         0.000         0.000
  XR-Pump-4                  159.286         0.000         0.000         0.000         0.000
  CC-Pump-1                   22.478         0.000         0.000         0.000         0.000
  CC-Pump-2                  111.276         0.000         0.000         0.000         0.000
  JK-Pump-1                   21.951         0.000         0.000         0.000         0.000
  JK-Pump-2                   58.247         0.000         0.000         0.000         0.000
  

  Analysis begun on:  Tue Mar 19 20:20:26 2019
  Analysis ended on:  Tue Mar 19 20:20:27 2019
  Total elapsed time: 00:00:01