
  EPA STORM WATER MANAGEMENT MODEL - VERSION 5.1 (Build 5.2.0.dev1)
  --------------------------------------------------------------

  
  *********************************************************
  NOTE: The summary statistics displayed in this report are
  based on results found at every computational time step,  
  not just on results from each reporting time step.
  *********************************************************
  
  ****************
  Analysis Options
  ****************
  Flow Units ............... MLD
  Process Models:
    Rainfall/Runoff ........ YES
    RDII ................... NO
    Snowmelt ............... NO
    Groundwater ............ NO
    Flow Routing ........... YES
    Ponding Allowed ........ NO
    Water Quality .......... YES
  Infiltration Method ...... GREEN_AMPT
  Flow Routing Method ...... DYNWAVE
  Starting Date ............ 08/28/2015 08:00:00
  Ending Date .............. 08/28/2015 12:00:00
  Antecedent Dry Days ...... 4.0
  Report Time Step ......... 00:01:00
  Wet Time Step ............ 00:01:00
  Dry Time Step ............ 00:01:00
  Routing Time Step ........ 5.00 sec
  Variable Time Step ....... YES
  Maximum Trials ........... 8
  Number of Threads ........ 1
  Head Tolerance ........... 0.001500 m
  
  
  **************************        Volume         Depth
  Runoff Quantity Continuity     hectare-m            mm
  **************************     ---------       -------
  Total Precipitation ......         8.247        29.238
  Evaporation Loss .........         0.000         0.000
  Infiltration Loss ........         3.266        11.578
  Surface Runoff ...........         2.671         9.469
  Final Storage ............         2.315         8.206
  Continuity Error (%) .....        -0.051
  
  
  **************************           COD         NH3-N            TN            TP            SS
  Runoff Quality Continuity             kg            kg            kg            kg            kg
  **************************    ----------    ----------    ----------    ----------    ----------
  Initial Buildup ..........     13074.240         0.000         0.000         0.000         0.000
  Surface Buildup ..........       104.581         0.000         0.000         0.000         0.000
  Wet Deposition ...........         0.000         0.000         0.000         0.000         0.000
  Sweeping Removal .........         0.000         0.000         0.000         0.000         0.000
  Infiltration Loss ........       324.499         0.000         0.000         0.000         0.000
  BMP Removal ..............         0.000         0.000         0.000         0.000         0.000
  Surface Runoff ...........      5893.165         0.000         0.000         0.000         0.000
  Remaining Buildup ........      6959.304         0.000         0.000         0.000         0.000
  Continuity Error (%) .....         0.014         0.000         0.000         0.000         0.000
  
  
  **************************        Volume        Volume
  Flow Routing Continuity        hectare-m      10^6 ltr
  **************************     ---------     ---------
  Dry Weather Inflow .......         0.000         0.000
  Wet Weather Inflow .......         2.665        26.648
  Groundwater Inflow .......         0.000         0.000
  RDII Inflow ..............         0.000         0.000
  External Inflow ..........         0.561         5.611
  External Outflow .........         1.578        15.777
  Flooding Loss ............         1.566        15.661
  Evaporation Loss .........         0.000         0.000
  Exfiltration Loss ........         0.000         0.000
  Initial Stored Volume ....         0.000         0.000
  Final Stored Volume ......         0.124         1.244
  Continuity Error (%) .....        -1.314
  
  
  **************************           COD         NH3-N            TN            TP            SS
  Quality Routing Continuity            kg            kg            kg            kg            kg
  **************************    ----------    ----------    ----------    ----------    ----------
  Dry Weather Inflow .......         0.000         0.000         0.000         0.000         0.000
  Wet Weather Inflow .......      5886.122         0.000         0.000         0.000         0.000
  Groundwater Inflow .......         0.000         0.000         0.000         0.000         0.000
  RDII Inflow ..............         0.000         0.000         0.000         0.000         0.000
  External Inflow ..........       936.999         0.000         0.000         0.000         0.000
  External Outflow .........      3039.453         0.000         0.000         0.000         0.000
  Flooding Loss ............      3475.575         0.000         0.000         0.000         0.000
  Exfiltration Loss ........         0.000         0.000         0.000         0.000         0.000
  Mass Reacted .............         0.000         0.000         0.000         0.000         0.000
  Initial Stored Mass ......         0.000         0.000         0.000         0.000         0.000
  Final Stored Mass ........       142.951         0.000         0.000         0.000         0.000
  Continuity Error (%) .....         2.420         0.000         0.000         0.000         0.000
  
  
  ***************************
  Time-Step Critical Elements
  ***************************
  Link 8 (46.72%)
  Link WSL2448 (21.96%)
  Link WSL1477 (16.08%)
  Link WSL1516 (4.67%)
  Link XRpipe (4.58%)
  
  
  ********************************
  Highest Flow Instability Indexes
  ********************************
  Link WSL1477 (82)
  Link WSL1516 (74)
  Link WSL1521 (28)
  Link WSL1476 (27)
  Link WSL1515 (18)
  
  
  *************************
  Routing Time Step Summary
  *************************
  Minimum Time Step           :     0.50 sec
  Average Time Step           :     1.46 sec
  Maximum Time Step           :     5.00 sec
  Percent in Steady State     :    -0.00
  Average Iterations per Step :     2.56
  Percent Not Converging      :     5.96
  
  
  ***************************
  Subcatchment Runoff Summary
  ***************************
  
  --------------------------------------------------------------------------------------------------------
                            Total      Total      Total      Total      Total       Total     Peak  Runoff
                           Precip      Runon       Evap      Infil     Runoff      Runoff   Runoff   Coeff
  Subcatchment                 mm         mm         mm         mm         mm    10^6 ltr      MLD
  --------------------------------------------------------------------------------------------------------
  1                         29.24      47.55       0.00      12.48      45.35        0.55     8.05   0.591
  2                         29.24       0.00       0.00       9.66      12.16        0.41     6.98   0.416
  3                         29.24       0.00       0.00       9.77      11.42        0.58     9.92   0.390
  4                         29.24       0.00       0.00       9.59      12.61        0.34     5.72   0.431
  5                         29.24      29.80       0.00      11.89      32.52        0.55     8.02   0.551
  6                         29.24       0.00       0.00       9.77      11.47        0.57     9.66   0.392
  7                         29.24       0.00       0.00      12.57       9.96       15.94   241.09   0.341
  8                         29.24       0.00       0.00       9.73      11.74        0.50     8.48   0.402
  9                         29.24      11.63       0.00      10.86      18.07        0.68    10.37   0.442
  17                        29.24       0.00       0.00       9.69      12.01        0.44     7.51   0.411
  18                        29.24       0.00       0.00       9.73      11.70        0.51     8.65   0.400
  28                        29.24      43.66       0.00      12.82      37.94        1.00    14.33   0.521
  29                        29.24      18.32       0.00      11.07      22.75        0.55     7.68   0.478
  30                        29.24      45.95       0.00      12.43      47.67        0.44     6.61   0.634
  31                        29.24       0.00       0.00       9.68      12.07        0.43     7.30   0.413
  33                        29.24       0.00       0.00       9.19      14.88        0.13     2.24   0.509
  34                        29.24      26.20       0.00      11.77      29.22        0.60     8.74   0.527
  35                        29.24       0.00       0.00       9.63      12.36        0.37     6.38   0.423
  36                        29.24      25.70       0.00      12.16      23.93        1.41    19.64   0.435
  39                        29.24       0.00       0.00       9.67      12.14        0.41     7.05   0.415
  40                        29.24       6.55       0.00      10.39      15.24        0.60     9.42   0.426
  41                        29.24       0.00       0.00       9.49      13.23        0.26     4.38   0.453
  42                        29.24       0.00       0.00       9.54      12.91        0.29     5.02   0.442
  43                        29.24       0.00       0.00       8.79      16.71        0.06     1.08   0.571
  44                        29.24     395.91       0.00      19.34     360.32        1.33    20.34   0.848
  45                        29.24       0.00       0.00       9.26      14.53        0.15     2.58   0.497
  46                        29.24      21.52       0.00      11.38      25.74        0.55     7.84   0.507
  47                        29.24       0.00       0.00       9.28      14.37        0.16     2.75   0.492
  48                        29.24      10.08       0.00      10.36      19.76        0.31     4.81   0.503
  55                        29.24      15.10       0.00      10.42      25.24        0.21     3.20   0.569
  56                        29.24      23.51       0.00      11.53      27.00        0.58     8.22   0.512
  57                        29.24       0.00       0.00       9.77      11.45        0.57     9.76   0.392
  59                        29.24       0.00       0.00       9.17      14.95        0.13     2.18   0.511
  60                        29.24      32.72       0.00      11.23      40.40        0.21     3.21   0.652
  61                        29.24       0.00       0.00      10.03       9.45        1.70    28.86   0.323
  62                        29.24       0.00       0.00      10.04       9.38        1.78    30.21   0.321
  64                        29.24       0.00       0.00       9.31      14.21        0.17     2.93   0.486
  
  
  ****************************
  Subcatchment Washoff Summary
  ****************************
  
  ------------------------------------------------------------------------------------------
                                 COD         NH3-N            TN            TP            SS
  Subcatchment                    kg            kg            kg            kg            kg
  ------------------------------------------------------------------------------------------
  1                          100.867         0.000         0.000         0.000         0.000
  2                            0.000         0.000         0.000         0.000         0.000
  3                            0.000         0.000         0.000         0.000         0.000
  4                           77.170         0.000         0.000         0.000         0.000
  5                          145.952         0.000         0.000         0.000         0.000
  6                          128.299         0.000         0.000         0.000         0.000
  7                         3483.110         0.000         0.000         0.000         0.000
  8                          113.244         0.000         0.000         0.000         0.000
  9                          192.653         0.000         0.000         0.000         0.000
  17                         100.600         0.000         0.000         0.000         0.000
  18                         115.424         0.000         0.000         0.000         0.000
  28                         300.035         0.000         0.000         0.000         0.000
  29                         157.234         0.000         0.000         0.000         0.000
  30                         110.488         0.000         0.000         0.000         0.000
  31                          97.892         0.000         0.000         0.000         0.000
  33                          30.053         0.000         0.000         0.000         0.000
  34                         164.493         0.000         0.000         0.000         0.000
  35                          85.932         0.000         0.000         0.000         0.000
  36                         440.148         0.000         0.000         0.000         0.000
  39                          94.709         0.000         0.000         0.000         0.000
  40                         160.280         0.000         0.000         0.000         0.000
  41                          59.362         0.000         0.000         0.000         0.000
  42                          67.912         0.000         0.000         0.000         0.000
  43                          13.799         0.000         0.000         0.000         0.000
  44                         422.394         0.000         0.000         0.000         0.000
  45                          34.751         0.000         0.000         0.000         0.000
  46                         159.202         0.000         0.000         0.000         0.000
  47                          37.047         0.000         0.000         0.000         0.000
  48                          84.508         0.000         0.000         0.000         0.000
  55                          54.946         0.000         0.000         0.000         0.000
  56                         161.432         0.000         0.000         0.000         0.000
  57                         129.568         0.000         0.000         0.000         0.000
  59                          29.155         0.000         0.000         0.000         0.000
  60                          52.354         0.000         0.000         0.000         0.000
  61                         364.430         0.000         0.000         0.000         0.000
  62                         380.496         0.000         0.000         0.000         0.000
  64                          39.594         0.000         0.000         0.000         0.000
  ------------------------------------------------------------------------------------------
  System                    8189.533         0.000         0.000         0.000         0.000
  
  
  ******************
  Node Depth Summary
  ******************
  
  ---------------------------------------------------------------------------------
                                 Average  Maximum  Maximum  Time of Max    Reported
                                   Depth    Depth      HGL   Occurrence   Max Depth
  Node                 Type       Meters   Meters   Meters  days hr:min      Meters
  ---------------------------------------------------------------------------------
  WS01000070           JUNCTION     0.00     0.00     0.00     0  00:00        0.00
  WS01000323           JUNCTION     0.00     0.00     0.00     0  00:00        0.00
  WS01000533           JUNCTION     0.00     0.00     6.86     0  00:00        0.00
  WS01005172           JUNCTION     0.00     0.00     0.00     0  00:00        0.00
  WS01005181           JUNCTION     0.00     0.00     0.00     0  00:00        0.00
  WS01009841           JUNCTION     0.00     0.00     0.00     0  00:00        0.00
  WS02000078           JUNCTION     0.00     0.00     0.00     0  00:00        0.00
  WS02000112           JUNCTION     0.00     0.00     0.00     0  00:00        0.00
  WS02000136           JUNCTION     0.00     0.00     0.00     0  00:00        0.00
  WS02001211           JUNCTION     0.53     0.66     5.50     0  02:55        0.65
  WS02001212           JUNCTION     0.52     0.80     5.60     0  03:02        0.76
  WS02001213           JUNCTION     0.62     0.91     5.61     0  02:57        0.90
  WS02003059           JUNCTION     0.63     0.85     5.50     0  02:57        0.83
  WS02003060           JUNCTION     0.71     0.94     5.49     0  03:02        0.92
  WS02003066           JUNCTION     0.33     0.51     5.81     0  03:00        0.51
  WS02003067           JUNCTION     0.58     0.84     6.16     0  03:00        0.83
  WS02003071           JUNCTION     0.76     0.95     5.35     0  03:07        0.94
  WS02003072           JUNCTION     0.65     0.84     5.21     0  03:17        0.83
  WS02003073           JUNCTION     0.72     0.98     5.22     0  03:38        0.89
  WS02003076           JUNCTION     0.66     0.87     5.10     0  03:32        0.84
  WS02003077           JUNCTION     0.12     0.21     5.22     0  03:39        0.20
  WS02003078           JUNCTION     0.08     0.11     7.01     0  02:37        0.10
  WS02003079           JUNCTION     0.24     0.34     7.25     0  02:30        0.34
  WS02003093           JUNCTION     0.10     0.16     7.50     0  02:28        0.16
  WS02003094           JUNCTION     0.20     0.28     7.50     0  02:28        0.28
  WS02003098           JUNCTION     0.15     0.23     7.40     0  02:29        0.23
  WS02003099           JUNCTION     0.26     0.37     7.41     0  02:28        0.37
  WS02003102           JUNCTION     0.25     0.36     7.39     0  02:28        0.36
  WS02003103           JUNCTION     0.27     0.38     7.35     0  02:29        0.38
  WS02003104           JUNCTION     0.26     0.37     7.33     0  02:29        0.37
  WS02003106           JUNCTION     0.26     0.36     7.29     0  02:29        0.36
  WS02004050           JUNCTION     0.47     0.59     4.81     0  02:54        0.59
  WS02004053           JUNCTION     0.00     0.00     0.00     0  00:00        0.00
  WS02004136           JUNCTION     0.17     0.21     6.94     0  00:01        0.18
  WS02004139           JUNCTION     0.43     0.53     5.49     0  03:04        0.53
  WS02004401           JUNCTION     0.66     0.94     6.94     0  02:58        0.94
  WS02004402           JUNCTION     0.68     0.95     6.91     0  02:58        0.95
  WS02004403           JUNCTION     0.67     0.95     6.88     0  02:58        0.95
  WS02004404           JUNCTION     0.74     1.01     6.86     0  02:58        1.01
  WS02004405           JUNCTION     0.74     1.00     6.84     0  02:58        1.00
  WS02004406           JUNCTION     0.71     0.96     6.79     0  02:58        0.96
  WS02004407           JUNCTION     0.67     0.91     6.71     0  02:57        0.91
  WS02004409           JUNCTION     0.65     0.87     6.64     0  02:57        0.87
  WS02004410           JUNCTION     0.62     0.83     6.55     0  02:57        0.83
  WS02004411           JUNCTION     0.57     0.77     6.45     0  02:56        0.77
  WS02004412           JUNCTION     0.51     0.69     6.33     0  03:00        0.68
  WS02004413           JUNCTION     0.53     0.73     6.20     0  02:56        0.73
  WS02004997           JUNCTION     5.94     6.69     8.30     0  02:39        6.69
  WS02005192           JUNCTION     0.41     2.91    10.78     0  02:41        0.99
  WS02005193           JUNCTION     0.44     3.22    11.04     0  02:41        0.77
  WS02005196           JUNCTION     0.42     1.57     9.42     0  02:42        0.97
  WS02006109           JUNCTION     0.69     0.95     7.57     0  02:55        0.95
  WS02006110           JUNCTION     0.61     0.83     7.43     0  02:55        0.83
  WS02006111           JUNCTION     0.37     0.54     7.12     0  02:55        0.54
  WS02006112           JUNCTION     0.67     0.94     7.06     0  02:59        0.94
  WS02006113           JUNCTION     0.51     0.70     7.29     0  02:55        0.70
  WS02006115           JUNCTION     0.63     0.91     7.01     0  02:59        0.91
  WS02006116           JUNCTION     0.66     0.94     6.98     0  02:59        0.94
  WS02006183           JUNCTION     0.00     0.00     0.00     0  00:00        0.00
  WS02006228           JUNCTION     0.74     1.04     7.69     0  02:55        1.04
  WS02006229           JUNCTION     0.72     1.04     7.73     0  02:55        1.04
  WS02006230           JUNCTION     0.75     1.12     7.87     0  02:55        1.12
  WS02006231           JUNCTION     0.69     1.10     8.00     0  02:55        1.09
  WS02006232           JUNCTION     0.66     1.10     8.13     0  02:38        1.08
  WS02006234           JUNCTION     0.64     1.12     8.28     0  02:38        1.05
  WS02006235           JUNCTION     0.69     1.16     8.33     0  02:40        1.12
  WS02006238           JUNCTION     0.70     1.17     8.35     0  02:40        1.13
  WS02006239           JUNCTION     0.70     1.14     8.35     0  02:40        1.11
  WS02006242           JUNCTION     0.67     1.18     8.48     0  02:39        1.05
  WS02006240           JUNCTION     0.64     1.26     8.55     0  02:38        1.04
  WS02006243           JUNCTION     0.59     1.13     8.55     0  02:39        0.94
  WS02006245           JUNCTION     0.56     1.01     8.50     0  02:39        0.88
  WS02006247           JUNCTION     0.57     0.92     8.43     0  02:40        0.87
  WS02006248           JUNCTION     0.50     0.80     8.39     0  02:50        0.80
  WS02006249           JUNCTION     0.53     1.09     8.69     0  02:42        0.83
  WS02006251           JUNCTION     0.53     1.88     9.55     0  02:42        0.87
  WS02006253           JUNCTION     0.44     1.29     9.09     0  02:42        0.79
  WS02618401           JUNCTION     0.00     0.00     0.00     0  00:00        0.00
  WS8802               JUNCTION     0.00     0.00     4.38     0  00:00        0.00
  WSA1649              JUNCTION     0.00     0.00     0.00     0  00:00        0.00
  WSF200               JUNCTION     0.34     0.54     5.64     0  02:57        0.51
  XR-Inflow            JUNCTION     5.81     6.55     8.36     0  01:44        6.55
  WS02004114           JUNCTION     5.91     6.66     8.26     0  02:42        6.65
  outfall-2            OUTFALL      0.00     0.00     7.00     0  00:00        0.00
  outfall-5            OUTFALL      0.08     0.20     7.86     0  02:50        0.19
  outfall-14           OUTFALL      0.00     0.00     7.66     0  00:00        0.00
  outfall-16           OUTFALL      0.00     0.00     8.39     0  00:00        0.00
  12                   OUTFALL      0.47     0.59     0.59     0  03:03        0.59
  XR-storage           STORAGE      6.91     7.72     8.22     0  01:23        7.72
  CC-storage           STORAGE      2.31     5.63     8.81     0  02:21        5.63
  JK-storage           STORAGE      1.71     4.80     7.80     0  02:14        4.80
  
  
  *******************
  Node Inflow Summary
  *******************
  
  -------------------------------------------------------------------------------------------------
                                  Maximum  Maximum                  Lateral       Total        Flow
                                  Lateral    Total  Time of Max      Inflow      Inflow     Balance
                                   Inflow   Inflow   Occurrence      Volume      Volume       Error
  Node                 Type           MLD      MLD  days hr:min    10^6 ltr    10^6 ltr     Percent
  -------------------------------------------------------------------------------------------------
  WS01000070           JUNCTION      0.00     0.00     0  00:00           0           0       0.000 ltr
  WS01000323           JUNCTION      0.00     0.00     0  00:00           0           0       0.000 ltr
  WS01000533           JUNCTION      0.00     0.00     0  00:00           0           0       0.000 ltr
  WS01005172           JUNCTION      0.00     0.00     0  00:00           0           0       0.000 ltr
  WS01005181           JUNCTION      0.00     0.00     0  00:00           0           0       0.000 ltr
  WS01009841           JUNCTION      0.00     0.00     0  00:00           0           0       0.000 ltr
  WS02000078           JUNCTION      0.00     0.00     0  00:00           0           0       0.000 ltr
  WS02000112           JUNCTION      0.00     0.00     0  00:00           0           0       0.000 ltr
  WS02000136           JUNCTION      0.00     0.00     0  00:00           0           0       0.000 ltr
  WS02001211           JUNCTION      0.25    36.36     0  03:22      0.0407        4.69       0.582
  WS02001212           JUNCTION      0.21    61.32     0  03:08      0.0346        4.75       0.336
  WS02001213           JUNCTION      0.30    82.89     0  03:11      0.0489        4.79       0.474
  WS02003059           JUNCTION      0.23    49.17     0  03:10      0.0378        4.75       0.568
  WS02003060           JUNCTION      0.16   179.89     0  02:57      0.0252        13.7       0.332
  WS02003066           JUNCTION      0.08   167.47     0  03:00      0.0122        8.92       0.170
  WS02003067           JUNCTION      0.26   127.90     0  02:53      0.0395        8.92       0.127
  WS02003071           JUNCTION      0.35   166.26     0  03:02      0.0538        13.7       0.350
  WS02003072           JUNCTION      0.24   164.88     0  03:03      0.0382        13.7       0.228
  WS02003073           JUNCTION      0.07   180.56     0  03:02     0.00978        14.9       0.202
  WS02003076           JUNCTION      0.72   190.85     0  03:17        0.12        14.9       0.110
  WS02003077           JUNCTION      0.04    19.46     0  02:37      0.0059         1.2       0.104
  WS02003078           JUNCTION      0.03    22.67     0  02:37     0.00419         1.2      -0.032
  WS02003079           JUNCTION      0.04    18.78     0  02:30     0.00561         1.2       0.236
  WS02003093           JUNCTION      0.02     0.15     0  02:14     0.00306     0.00427       9.988
  WS02003094           JUNCTION     10.42    10.43     0  02:27       0.691       0.695       0.689
  WS02003098           JUNCTION      0.02    10.43     0  02:27     0.00293       0.692       0.461
  WS02003099           JUNCTION      0.07    10.51     0  02:30      0.0109         0.7       0.935
  WS02003102           JUNCTION      8.51    18.72     0  02:26       0.501        1.19       0.483
  WS02003103           JUNCTION      0.02    18.70     0  02:28     0.00239        1.19       0.334
  WS02003104           JUNCTION      0.02    18.71     0  02:29     0.00302        1.19       0.285
  WS02003106           JUNCTION      0.05    18.75     0  02:29     0.00727        1.19       0.348
  WS02004050           JUNCTION      0.72   195.90     0  03:19       0.119        15.1       0.514
  WS02004053           JUNCTION      0.00     0.00     0  00:00           0           0       0.000 ltr
  WS02004136           JUNCTION      0.44    32.92     0  01:40      0.0703        4.61       0.066
  WS02004139           JUNCTION      0.38    39.53     0  00:01      0.0619        4.67       0.376
  WS02004401           JUNCTION      0.05    88.28     0  02:56     0.00897        6.32       0.183
  WS02004402           JUNCTION      0.22    88.48     0  02:56      0.0335        6.34       0.172
  WS02004403           JUNCTION      0.23    88.75     0  02:56      0.0349        6.36       0.155
  WS02004404           JUNCTION      0.24    88.87     0  02:56      0.0365        6.39       0.135
  WS02004405           JUNCTION      5.79    93.34     0  02:55       0.347        6.73       0.189
  WS02004406           JUNCTION     14.45   107.56     0  02:55        1.02        7.73       0.259
  WS02004407           JUNCTION      0.11   107.69     0  02:55      0.0171        7.73       0.232
  WS02004409           JUNCTION      8.22   115.92     0  02:59       0.586        8.29       0.193
  WS02004410           JUNCTION      0.15   116.12     0  02:54      0.0226         8.3       0.192
  WS02004411           JUNCTION      0.25   116.95     0  02:58      0.0379        8.32       0.169
  WS02004412           JUNCTION      9.74   124.91     0  02:58       0.581        8.89       0.136
  WS02004413           JUNCTION      0.11   125.82     0  02:57      0.0172         8.9       0.132
  WS02004997           JUNCTION      0.42    63.61     0  02:40      0.0693        7.97       0.518
  WS02005192           JUNCTION      9.86    13.27     0  02:41       0.589        0.59       0.091
  WS02005193           JUNCTION      0.09    18.39     0  02:41      0.0146       0.632       0.178
  WS02005196           JUNCTION      0.12    15.50     0  02:41       0.019       0.613       0.241
  WS02006109           JUNCTION      0.08    79.44     0  02:51      0.0135        5.65       0.228
  WS02006110           JUNCTION      0.08    79.52     0  02:51      0.0132        5.65       0.213
  WS02006111           JUNCTION      0.24    87.73     0  02:50      0.0366        6.27       0.076
  WS02006112           JUNCTION      0.18    87.84     0  02:51      0.0273        6.29       0.191
  WS02006113           JUNCTION     10.07    87.56     0  02:50       0.608        6.24       0.145
  WS02006115           JUNCTION      0.08    87.89     0  02:57      0.0134        6.29       0.194
  WS02006116           JUNCTION      0.24    88.19     0  02:56       0.036        6.32       0.188
  WS02006183           JUNCTION      0.00     0.00     0  00:00           0           0       0.000 ltr
  WS02006228           JUNCTION     20.49    79.37     0  02:51        1.36        5.64       0.171
  WS02006229           JUNCTION      0.13    59.13     0  02:51        0.02        4.29       0.186
  WS02006230           JUNCTION      0.07    59.06     0  02:50      0.0116        4.28       0.185
  WS02006231           JUNCTION      0.13    58.99     0  02:50      0.0205        4.27       0.081
  WS02006232           JUNCTION      7.06    58.87     0  02:50       0.423        4.26       0.084
  WS02006234           JUNCTION      0.14    54.82     0  03:10      0.0216        3.84       0.082
  WS02006235           JUNCTION      0.14    54.70     0  03:10      0.0223        3.82       0.058
  WS02006238           JUNCTION      0.15    54.58     0  03:10      0.0235         3.8       0.080
  WS02006239           JUNCTION      0.11    38.25     0  03:26      0.0174        2.33       0.213
  WS02006242           JUNCTION      0.08    37.11     0  03:25      0.0129        2.31       0.265
  WS02006240           JUNCTION      0.06    37.39     0  03:26     0.00992        2.32       0.188
  WS02006243           JUNCTION      0.17    36.51     0  03:25      0.0269         2.3       0.173
  WS02006245           JUNCTION      0.07    35.81     0  03:25      0.0113        2.28       0.142
  WS02006247           JUNCTION      8.19    35.33     0  03:24       0.572        2.27       0.139
  WS02006248           JUNCTION      0.12    46.29     0  02:50      0.0192         2.5       0.071
  WS02006249           JUNCTION      0.19    46.17     0  02:50      0.0286        2.49       0.107
  WS02006251           JUNCTION      3.26    45.99     0  02:50       0.219        2.46       0.086
  WS02006253           JUNCTION      0.11    42.82     0  02:50      0.0173        2.25       0.031
  WS02618401           JUNCTION      0.00     0.00     0  00:00           0           0       0.000 ltr
  WS8802               JUNCTION      0.00     0.00     0  00:00           0           0       0.000 ltr
  WSA1649              JUNCTION      0.00     0.00     0  00:00           0           0       0.000 ltr
  WSF200               JUNCTION      0.14   151.61     0  02:57      0.0216        8.93      -0.012
  XR-Inflow            JUNCTION    260.18   260.18     0  02:52        19.2        19.2       0.139
  WS02004114           JUNCTION      0.57    64.15     0  02:40      0.0916        8.02       0.335
  outfall-2            OUTFALL       0.00     0.00     0  00:00           0           0       0.000 ltr
  outfall-5            OUTFALL       0.00    36.41     0  02:50           0       0.803       0.000
  outfall-14           OUTFALL       0.00     0.00     0  00:00           0           0       0.000 ltr
  outfall-16           OUTFALL       0.00     0.00     0  00:00           0           0       0.000 ltr
  12                   OUTFALL       0.00   179.12     0  03:03           0          15       0.000
  XR-storage           STORAGE       0.00    64.15     0  02:40           0           8      -0.712
  CC-storage           STORAGE      30.48    30.48     0  02:25        1.99        1.99      -7.927
  JK-storage           STORAGE      31.20    31.20     0  02:25        1.96        1.96      -6.597
  
  
  **********************
  Node Surcharge Summary
  **********************
  
  Surcharging occurs when water rises above the top of the highest conduit.
  ---------------------------------------------------------------------
                                               Max. Height   Min. Depth
                                   Hours       Above Crown    Below Rim
  Node                 Type      Surcharged         Meters       Meters
  ---------------------------------------------------------------------
  WS01000070           JUNCTION        4.00          0.000        0.000
  WS01000323           JUNCTION        4.00          0.000        0.000
  WS01000533           JUNCTION        4.00          0.000        2.147
  WS01005172           JUNCTION        4.00          0.000        0.000
  WS01005181           JUNCTION        4.00          0.000        0.000
  WS01009841           JUNCTION        4.00          0.000        0.000
  WS02000078           JUNCTION        4.00          0.000        0.000
  WS02000112           JUNCTION        4.00          0.000        0.000
  WS02000136           JUNCTION        4.00          0.000        0.000
  WS02004053           JUNCTION        4.00          0.000        0.000
  WS02004404           JUNCTION        0.20          0.009        2.771
  WS02004405           JUNCTION        0.01          0.001        2.799
  WS02004997           JUNCTION        3.07          5.794        0.206
  WS02005192           JUNCTION        0.51          2.309        0.510
  WS02005193           JUNCTION        0.58          2.617        0.000
  WS02005196           JUNCTION        0.54          0.970        1.736
  WS02006109           JUNCTION        0.67          0.151        1.687
  WS02006110           JUNCTION        0.40          0.029        1.816
  WS02006183           JUNCTION        4.00          0.000        0.000
  WS02006228           JUNCTION        0.83          0.245        1.986
  WS02006229           JUNCTION        0.79          0.244        2.210
  WS02006231           JUNCTION        0.87          0.395        1.148
  WS02006232           JUNCTION        0.82          0.401        1.088
  WS02006234           JUNCTION        0.76          0.415        0.842
  WS02006235           JUNCTION        0.79          0.460        0.834
  WS02006238           JUNCTION        0.79          0.473        0.961
  WS02006239           JUNCTION        0.81          0.442        0.887
  WS02006242           JUNCTION        0.80          0.483        0.366
  WS02006240           JUNCTION        0.78          0.561        0.842
  WS02006243           JUNCTION        0.76          0.429        0.351
  WS02006245           JUNCTION        0.73          0.308        0.547
  WS02006247           JUNCTION        0.74          0.223        0.537
  WS02006249           JUNCTION        0.65          0.388        0.000
  WS02006251           JUNCTION        0.62          1.181        0.329
  WS02006253           JUNCTION        0.45          0.592        1.862
  WS02618401           JUNCTION        4.00          0.000        0.000
  WS8802               JUNCTION        4.00          0.000        4.942
  WSA1649              JUNCTION        4.00          0.000        0.000
  XR-Inflow            JUNCTION        3.04          5.650        0.000
  WS02004114           JUNCTION        3.08          5.757        0.758
  
  
  *********************
  Node Flooding Summary
  *********************
  
  Flooding refers to all water that overflows a node, whether it ponds or not.
  --------------------------------------------------------------------------
                                                             Total   Maximum
                                 Maximum   Time of Max       Flood    Ponded
                        Hours       Rate    Occurrence      Volume     Depth
  Node                 Flooded       MLD   days hr:min    10^6 ltr    Meters
  --------------------------------------------------------------------------
  WS02005193              0.01     10.86      0  02:41       0.000     0.000
  WS02006249              0.01      2.84      0  02:42       0.000     0.000
  XR-Inflow               2.26    197.03      0  02:52      11.312     0.000
  XR-storage              2.62     40.86      0  01:30       3.451     0.000
  CC-storage              0.54     30.48      0  02:25       0.392     0.000
  JK-storage              0.65     31.20      0  02:25       0.508     0.000
  
  
  **********************
  Storage Volume Summary
  **********************
  
  --------------------------------------------------------------------------------------------------
                         Average     Avg  Evap Exfil       Maximum     Max    Time of Max    Maximum
                          Volume    Pcnt  Pcnt  Pcnt        Volume    Pcnt     Occurrence    Outflow
  Storage Unit           1000 m3    Full  Loss  Loss       1000 m3    Full    days hr:min        MLD
  --------------------------------------------------------------------------------------------------
  XR-storage               0.056      90     0     0         0.063     100       0  01:23      32.48
  CC-storage               0.065      41     0     0         0.159     100       0  02:21      34.56
  JK-storage               0.048      36     0     0         0.136     100       0  02:14      34.56
  
  
  ***********************
  Outfall Loading Summary
  ***********************
  
  ---------------------------------------------------------------------------------------------------------------------------------
                         Flow       Avg       Max       Total         Total         Total         Total         Total         Total
                         Freq      Flow      Flow      Volume           COD         NH3-N            TN            TP            SS
  Outfall Node           Pcnt       MLD       MLD    10^6 ltr            kg            kg            kg            kg            kg
  ---------------------------------------------------------------------------------------------------------------------------------
  outfall-2              0.00      0.00      0.00       0.000         0.000         0.000         0.000         0.000         0.000
  outfall-5             49.97     27.37     36.41       0.803       150.691         0.000         0.000         0.000         0.000
  outfall-14             0.00      0.00      0.00       0.000         0.000         0.000         0.000         0.000         0.000
  outfall-16             0.00      0.00      0.00       0.000         0.000         0.000         0.000         0.000         0.000
  12                    99.99    127.78    179.12      14.974      2889.043         0.000         0.000         0.000         0.000
  ---------------------------------------------------------------------------------------------------------------------------------
  System                29.99    155.14    215.23      15.777      3039.734         0.000         0.000         0.000         0.000
  
  
  ********************
  Link Flow Summary
  ********************
  
  -----------------------------------------------------------------------------
                                 Maximum  Time of Max   Maximum    Max/    Max/
                                  |Flow|   Occurrence   |Veloc|    Full    Full
  Link                 Type          MLD  days hr:min     m/sec    Flow   Depth
  -----------------------------------------------------------------------------
  WSL49                CONDUIT    190.13     0  03:17      2.74    2.36    0.75
  WSL1465              CONDUIT     49.43     0  03:12      1.99    0.45    0.87
  WSL1472              CONDUIT    164.67     0  03:03      2.18    1.88    0.73
  WSL1475              CONDUIT    195.19     0  03:19      3.10    2.08    0.50
  WSL1476              CONDUIT     19.28     0  03:33      0.73    0.09    0.63
  WSL1477              CONDUIT     22.65     0  02:37      2.78    0.90    0.37
  WSL1490              CONDUIT     44.72     0  03:12      1.60    0.72    0.71
  WSL1491              CONDUIT     82.61     0  03:11      1.86    0.48    0.73
  WSL1492              CONDUIT     48.95     0  03:10      1.71    0.75    0.86
  WSL1507              CONDUIT      0.13     0  02:14      0.11    0.00    0.27
  WSL1508              CONDUIT     10.41     0  02:27      0.91    0.29    0.32
  WSL1512              CONDUIT     10.45     0  02:30      0.63    0.07    0.30
  WSL1513              CONDUIT     10.53     0  02:31      0.57    0.62    0.45
  WSL1515              CONDUIT    167.40     0  03:00      3.24    1.63    0.53
  WSL1516              CONDUIT     19.42     0  02:37      4.81    0.07    0.23
  WSL1518              CONDUIT     18.69     0  02:28      0.96    0.37    0.46
  WSL1519              CONDUIT     18.71     0  02:29      0.96    0.47    0.46
  WSL1521              CONDUIT     18.75     0  02:30      1.02    0.54    0.44
  WSL1543              CONDUIT     18.70     0  02:29      0.94    0.58    0.47
  WSL1961              CONDUIT     39.15     0  00:01      3.75    0.08    0.36
  WSL1964              CONDUIT     36.12     0  03:22      1.79    0.20    0.49
  WSL2010              CONDUIT     88.55     0  02:56      1.35    1.13    0.95
  WSL2011              CONDUIT     88.66     0  03:04      1.32    0.57    0.97
  WSL2012              CONDUIT     88.93     0  03:04      1.31    1.35    1.00
  WSL2013              CONDUIT     93.38     0  02:55      1.39    2.32    0.98
  WSL2014              CONDUIT    107.59     0  02:55      1.64    1.72    0.93
  WSL2015              CONDUIT    107.82     0  02:59      1.71    1.45    0.89
  WSL2016              CONDUIT    115.99     0  02:54      1.91    1.34    0.85
  WSL2017              CONDUIT    116.73     0  02:58      2.06    1.42    0.80
  WSL2018              CONDUIT    125.72     0  02:57      2.58    0.75    0.71
  WSL2019              CONDUIT    127.68     0  02:53      2.56    0.75    0.78
  WSL2028              CONDUIT     88.28     0  02:56      1.35    0.94    0.95
  WSL2029              CONDUIT    117.53     0  02:58      2.31    1.49    0.73
  WSL2038              CONDUIT     10.47     0  02:41      0.94    0.52    1.00
  WSL2039              CONDUIT     11.75     0  02:42      1.36    0.60    1.00
  WSL2041              CONDUIT     11.41     0  02:42      1.07    0.56    1.00
  WSL2294              CONDUIT     79.44     0  02:51      1.83    2.67    1.00
  WSL2295              CONDUIT     79.51     0  02:51      1.89    3.57    0.94
  WSL2296              CONDUIT     87.68     0  02:51      2.30    0.49    0.84
  WSL2297              CONDUIT     87.81     0  02:57      1.44    1.68    0.93
  WSL2298              CONDUIT     87.52     0  02:50      2.66    4.03    0.78
  WSL2301              CONDUIT     87.98     0  02:56      1.42    0.81    0.92
  WSL2302              CONDUIT     88.23     0  02:56      1.38    1.08    0.94
  WSL2441              CONDUIT     79.37     0  02:51      1.83    2.03    1.00
  WSL2442              CONDUIT     59.02     0  02:51      1.77    1.51    1.00
  WSL2443              CONDUIT     58.99     0  02:50      1.77    0.92    1.00
  WSL2444              CONDUIT     58.87     0  02:50      1.79    0.93    1.00
  WSL2446              CONDUIT     54.83     0  03:10      1.80    0.94    1.00
  WSL2447              CONDUIT     54.71     0  03:10      1.69    2.81    1.00
  WSL2448              CONDUIT     54.58     0  03:10      1.64    1.53    1.00
  WSL2449              CONDUIT     38.63     0  03:26      1.32    1.35    1.00
  WSL2450              CONDUIT     38.15     0  03:26      1.32    0.79    1.00
  WSL2451              CONDUIT     37.33     0  03:26      1.27    2.43    1.00
  WSL2452              CONDUIT     37.04     0  03:25      1.28    0.71    1.00
  WSL2454              CONDUIT     36.37     0  03:25      1.40    0.85    1.00
  WSL2478              CONDUIT     35.75     0  03:25      1.35    1.26    1.00
  WSL2479              CONDUIT     29.06     0  03:24      1.21    0.55    1.00
  WSL2480              CONDUIT     46.18     0  02:50      1.39    2.14    1.00
  WSL2482              CONDUIT     46.01     0  02:50      1.38    1.20    1.00
  WSL2484              CONDUIT     42.88     0  02:50      1.33    0.60    1.00
  WSL2493              CONDUIT     59.13     0  02:51      1.36    0.99    1.00
  WSL2867              CONDUIT    151.49     0  02:57      4.32    0.31    0.41
  WSL2868              CONDUIT    137.78     0  02:57      2.36    0.26    0.59
  WSL348               CONDUIT     63.19     0  02:40      1.88    0.58    1.00
  WSL175               CONDUIT     63.61     0  02:40      2.43    2.14    1.00
  WSL1467              CONDUIT    165.97     0  03:02      2.07    0.88    0.78
  WSL1473              CONDUIT    164.41     0  03:02      2.32    0.67    0.73
  XRpipe               CONDUIT     64.15     0  02:40      8.80    0.16    1.00
  8                    CONDUIT     36.41     0  02:50      6.91    0.48    0.49
  19                   CONDUIT      0.00     0  00:00      0.00    0.00    0.00
  17                   CONDUIT      0.00     0  00:00      0.00    0.00    0.00
  4                    CONDUIT      0.00     0  00:00      0.00    0.00    0.00
  2                    CONDUIT    179.12     0  03:03      4.33    0.65    0.59
  XR-Pump-1            PUMP         8.12     0  00:01              1.00
  XR-Pump-3            PUMP         8.12     0  00:01              1.00
  XR-Pump-2            PUMP         8.12     0  00:01              1.00
  XR-Pump-4            PUMP         8.12     0  00:01              1.00
  CC-Pump-1            PUMP        17.28     0  02:50              1.00
  CC-Pump-2            PUMP        17.28     0  01:40              1.00
  JK-Pump-1            PUMP        17.28     0  02:40              1.00
  JK-Pump-2            PUMP        17.28     0  01:40              1.00
  
  
  ***************************
  Flow Classification Summary
  ***************************
  
  -------------------------------------------------------------------------------------
                      Adjusted    ---------- Fraction of Time in Flow Class ---------- 
                       /Actual         Up    Down  Sub   Sup   Up    Down  Norm  Inlet 
  Conduit               Length    Dry  Dry   Dry   Crit  Crit  Crit  Crit  Ltd   Ctrl  
  -------------------------------------------------------------------------------------
  WSL49                   1.00   0.00  0.00  0.00  0.99  0.01  0.00  0.00  0.00  0.00
  WSL1465                 1.00   0.00  0.00  0.00  1.00  0.00  0.00  0.00  0.06  0.00
  WSL1472                 1.00   0.00  0.00  0.00  1.00  0.00  0.00  0.00  0.00  0.00
  WSL1475                 1.00   0.00  0.00  0.00  0.10  0.90  0.00  0.00  0.01  0.00
  WSL1476                 1.00   0.00  0.00  0.00  1.00  0.00  0.00  0.00  0.97  0.00
  WSL1477                 1.00   0.00  0.00  0.00  0.00  1.00  0.00  0.00  0.36  0.00
  WSL1490                 1.00   0.00  0.00  0.00  1.00  0.00  0.00  0.00  0.02  0.00
  WSL1491                 1.00   0.00  0.00  0.00  1.00  0.00  0.00  0.00  0.08  0.00
  WSL1492                 1.00   0.00  0.00  0.00  1.00  0.00  0.00  0.00  0.03  0.00
  WSL1507                 1.00   0.00  0.00  0.00  1.00  0.00  0.00  0.00  0.38  0.00
  WSL1508                 1.00   0.00  0.00  0.00  1.00  0.00  0.00  0.00  0.00  0.00
  WSL1512                 1.00   0.00  0.00  0.00  1.00  0.00  0.00  0.00  0.72  0.00
  WSL1513                 1.00   0.00  0.00  0.00  1.00  0.00  0.00  0.00  0.00  0.00
  WSL1515                 1.00   0.00  0.00  0.00  0.19  0.81  0.00  0.00  0.04  0.00
  WSL1516                 1.00   0.00  0.00  0.00  0.00  1.00  0.00  0.00  0.96  0.00
  WSL1518                 1.00   0.00  0.00  0.00  1.00  0.00  0.00  0.00  0.36  0.00
  WSL1519                 1.00   0.00  0.00  0.00  1.00  0.00  0.00  0.00  0.30  0.00
  WSL1521                 1.00   0.00  0.00  0.00  1.00  0.00  0.00  0.00  0.02  0.00
  WSL1543                 1.00   0.00  0.00  0.00  1.00  0.00  0.00  0.00  0.02  0.00
  WSL1961                 1.00   0.00  0.00  0.00  0.23  0.77  0.00  0.00  0.99  0.00
  WSL1964                 1.00   0.00  0.00  0.00  1.00  0.00  0.00  0.00  0.10  0.00
  WSL2010                 1.00   0.00  0.00  0.00  1.00  0.00  0.00  0.00  0.00  0.00
  WSL2011                 1.00   0.00  0.00  0.00  1.00  0.00  0.00  0.00  0.18  0.00
  WSL2012                 1.00   0.00  0.00  0.00  1.00  0.00  0.00  0.00  0.01  0.00
  WSL2013                 1.00   0.00  0.00  0.00  1.00  0.00  0.00  0.00  0.00  0.00
  WSL2014                 1.00   0.00  0.00  0.00  1.00  0.00  0.00  0.00  0.00  0.00
  WSL2015                 1.00   0.00  0.00  0.00  1.00  0.00  0.00  0.00  0.02  0.00
  WSL2016                 1.00   0.00  0.00  0.00  1.00  0.00  0.00  0.00  0.04  0.00
  WSL2017                 1.00   0.00  0.00  0.00  1.00  0.00  0.00  0.00  0.04  0.00
  WSL2018                 1.00   0.00  0.00  0.00  0.17  0.83  0.00  0.00  0.06  0.00
  WSL2019                 1.00   0.00  0.00  0.00  0.82  0.18  0.00  0.00  0.11  0.00
  WSL2028                 1.00   0.00  0.00  0.00  1.00  0.00  0.00  0.00  0.06  0.00
  WSL2029                 1.00   0.00  0.00  0.00  0.92  0.08  0.00  0.00  0.00  0.00
  WSL2038                 1.00   0.00  0.00  0.00  1.00  0.00  0.00  0.00  0.01  0.00
  WSL2039                 1.00   0.00  0.00  0.00  0.89  0.11  0.00  0.00  0.01  0.00
  WSL2041                 1.00   0.00  0.00  0.00  1.00  0.00  0.00  0.00  0.16  0.00
  WSL2294                 1.00   0.00  0.00  0.00  1.00  0.00  0.00  0.00  0.00  0.00
  WSL2295                 1.00   0.00  0.00  0.00  1.00  0.00  0.00  0.00  0.00  0.00
  WSL2296                 1.00   0.00  0.00  0.00  0.73  0.27  0.00  0.00  0.40  0.00
  WSL2297                 1.00   0.00  0.00  0.00  1.00  0.00  0.00  0.00  0.00  0.00
  WSL2298                 1.00   0.00  0.00  0.00  0.21  0.79  0.00  0.00  0.00  0.00
  WSL2301                 1.00   0.00  0.00  0.00  1.00  0.00  0.00  0.00  0.09  0.00
  WSL2302                 1.00   0.00  0.00  0.00  1.00  0.00  0.00  0.00  0.01  0.00
  WSL2441                 1.00   0.00  0.00  0.00  1.00  0.00  0.00  0.00  0.00  0.00
  WSL2442                 1.00   0.00  0.00  0.00  1.00  0.00  0.00  0.00  0.11  0.00
  WSL2443                 1.00   0.00  0.00  0.00  1.00  0.00  0.00  0.00  0.28  0.00
  WSL2444                 1.00   0.00  0.00  0.00  0.78  0.22  0.00  0.00  0.16  0.00
  WSL2446                 1.00   0.00  0.00  0.00  0.81  0.19  0.00  0.00  0.13  0.00
  WSL2447                 1.00   0.00  0.00  0.00  1.00  0.00  0.00  0.00  0.00  0.00
  WSL2448                 1.00   0.00  0.00  0.00  1.00  0.00  0.00  0.00  0.01  0.00
  WSL2449                 1.00   0.00  0.00  0.00  1.00  0.00  0.00  0.00  0.04  0.00
  WSL2450                 1.00   0.00  0.00  0.00  1.00  0.00  0.00  0.00  0.31  0.00
  WSL2451                 1.00   0.00  0.00  0.00  1.00  0.00  0.00  0.00  0.00  0.00
  WSL2452                 1.00   0.00  0.00  0.00  1.00  0.00  0.00  0.00  0.35  0.00
  WSL2454                 1.00   0.00  0.00  0.00  1.00  0.00  0.00  0.00  0.06  0.00
  WSL2478                 1.00   0.00  0.00  0.00  1.00  0.00  0.00  0.00  0.00  0.00
  WSL2479                 1.00   0.00  0.00  0.00  1.00  0.00  0.00  0.00  0.34  0.00
  WSL2480                 1.00   0.00  0.00  0.00  1.00  0.00  0.00  0.00  0.00  0.00
  WSL2482                 1.00   0.00  0.00  0.00  1.00  0.00  0.00  0.00  0.36  0.00
  WSL2484                 1.00   0.00  0.00  0.00  0.99  0.01  0.00  0.00  0.45  0.00
  WSL2493                 1.00   0.00  0.00  0.00  1.00  0.00  0.00  0.00  0.05  0.00
  WSL2867                 1.00   0.00  0.00  0.00  0.00  1.00  0.00  0.00  0.19  0.00
  WSL2868                 1.00   0.00  0.00  0.00  0.92  0.08  0.00  0.00  0.52  0.00
  WSL348                  1.00   0.00  0.00  0.00  0.98  0.02  0.00  0.00  0.01  0.00
  WSL175                  1.00   0.00  0.00  0.00  0.94  0.06  0.00  0.00  0.01  0.00
  WSL1467                 1.00   0.00  0.00  0.00  1.00  0.00  0.00  0.00  0.11  0.00
  WSL1473                 1.00   0.00  0.00  0.00  1.00  0.00  0.00  0.00  0.04  0.00
  XRpipe                  1.00   0.00  0.00  0.00  0.95  0.05  0.00  0.00  0.04  0.00
  8                       1.00   0.50  0.00  0.00  0.00  0.50  0.00  0.00  0.06  0.00
  19                      1.00   1.00  0.00  0.00  0.00  0.00  0.00  0.00  0.00  0.00
  17                      1.00   1.00  0.00  0.00  0.00  0.00  0.00  0.00  0.00  0.00
  4                       1.00   1.00  0.00  0.00  0.00  0.00  0.00  0.00  0.00  0.00
  2                       1.00   0.00  0.00  0.00  0.00  1.00  0.00  0.00  0.29  0.00
  
  
  *************************
  Conduit Surcharge Summary
  *************************
  
  ----------------------------------------------------------------------------
                                                           Hours        Hours 
                         --------- Hours Full --------   Above Full   Capacity
  Conduit                Both Ends  Upstream  Dnstream   Normal Flow   Limited
  ----------------------------------------------------------------------------
  WSL49                       0.01      0.01      0.01      2.15         0.01
  WSL1472                     0.01      0.01      0.01      1.97         0.01
  WSL1475                     0.01      0.01      0.01      1.95         0.01
  WSL1476                     0.01      0.01      1.09      0.01         0.01
  WSL1515                     0.01      0.01      0.01      0.76         0.01
  WSL2010                     0.01      0.01      0.01      0.64         0.01
  WSL2011                     0.01      0.01      0.20      0.01         0.01
  WSL2012                     0.01      0.20      0.01      0.91         0.01
  WSL2013                     0.01      0.01      0.01      1.93         0.01
  WSL2014                     0.01      0.01      0.01      1.59         0.01
  WSL2015                     0.01      0.01      0.01      1.27         0.01
  WSL2016                     0.01      0.01      0.01      0.90         0.01
  WSL2017                     0.01      0.01      0.01      1.25         0.01
  WSL2029                     0.01      0.01      0.01      1.31         0.01
  WSL2038                     0.51      0.51      0.54      0.01         0.01
  WSL2039                     0.58      0.58      0.60      0.01         0.01
  WSL2041                     0.54      0.54      0.58      0.01         0.01
  WSL2294                     0.40      0.67      0.40      1.97         0.40
  WSL2295                     0.01      0.40      0.01      2.33         0.01
  WSL2296                     0.01      0.01      0.65      0.01         0.01
  WSL2297                     0.01      0.01      0.01      1.65         0.01
  WSL2298                     0.01      0.01      0.01      2.34         0.01
  WSL2302                     0.01      0.01      0.01      0.56         0.01
  WSL2441                     0.67      0.83      0.67      1.87         0.67
  WSL2442                     0.94      0.94      0.94      1.36         0.94
  WSL2443                     0.87      0.87      0.94      0.01         0.01
  WSL2444                     0.82      0.82      0.87      0.01         0.01
  WSL2446                     0.75      0.75      0.82      0.01         0.01
  WSL2447                     0.75      0.79      0.75      1.95         0.75
  WSL2448                     0.79      0.79      0.79      1.33         0.79
  WSL2449                     0.79      0.81      0.79      0.47         0.19
  WSL2450                     0.78      0.78      0.81      0.01         0.01
  WSL2451                     0.78      0.80      0.78      1.88         0.75
  WSL2452                     0.76      0.76      0.80      0.01         0.01
  WSL2454                     0.73      0.73      0.76      0.01         0.01
  WSL2478                     0.73      0.74      0.73      0.41         0.15
  WSL2479                     0.62      0.62      0.74      0.01         0.01
  WSL2480                     0.62      0.65      0.62      1.36         0.61
  WSL2482                     0.62      0.62      0.65      0.49         0.50
  WSL2484                     0.45      0.45      0.62      0.01         0.01
  WSL2493                     0.79      0.79      0.83      0.01         0.01
  WSL348                      3.04      3.04      3.07      0.01         0.01
  WSL175                      3.07      3.07      3.08      2.69         2.73
  XRpipe                      3.08      3.08      3.45      0.01         0.01
  
  
  ***************
  Pumping Summary
  ***************
  
  ---------------------------------------------------------------------------------------------------------
                                                  Min       Avg       Max     Total     Power    % Time Off
                        Percent   Number of      Flow      Flow      Flow    Volume     Usage    Pump Curve
  Pump                 Utilized   Start-Ups       MLD       MLD       MLD  10^6 ltr     Kw-hr    Low   High
  ---------------------------------------------------------------------------------------------------------
  XR-Pump-1               95.79           3      0.00      7.86      8.12     1.178      7.21    0.0    0.0
  XR-Pump-3               87.47           3      0.00      7.82      8.12     1.065      6.12    0.0    0.0
  XR-Pump-2               91.62           3      0.00      7.85      8.12     1.121      7.04    0.0    0.0
  XR-Pump-4               95.79           3      0.00      7.86      8.12     1.178      7.21    0.0    0.0
  CC-Pump-1               20.84           1      0.00     14.31     17.28     0.465      4.22    0.0    0.0
  CC-Pump-2               58.31           3      0.00     14.34     17.28     1.141     10.36    0.0    0.0
  JK-Pump-1               20.83           1      0.00     14.82     17.28     0.480      4.19    0.0    0.0
  JK-Pump-2               49.99           3      0.00     14.36     17.28     0.971      9.69    0.0    0.0
  
  
  ***************************
  Link Pollutant Load Summary
  ***************************
  
  ------------------------------------------------------------------------------------------
                                 COD         NH3-N            TN            TP            SS
  Link                            kg            kg            kg            kg            kg
  ------------------------------------------------------------------------------------------
  WSL49                     2860.220         0.000         0.000         0.000         0.000
  WSL1465                    787.920         0.000         0.000         0.000         0.000
  WSL1472                   2549.132         0.000         0.000         0.000         0.000
  WSL1475                   2878.575         0.000         0.000         0.000         0.000
  WSL1476                    312.163         0.000         0.000         0.000         0.000
  WSL1477                    310.244         0.000         0.000         0.000         0.000
  WSL1490                    784.977         0.000         0.000         0.000         0.000
  WSL1491                    810.335         0.000         0.000         0.000         0.000
  WSL1492                    784.745         0.000         0.000         0.000         0.000
  WSL1507                      1.484         0.000         0.000         0.000         0.000
  WSL1508                    194.686         0.000         0.000         0.000         0.000
  WSL1512                    194.604         0.000         0.000         0.000         0.000
  WSL1513                    195.874         0.000         0.000         0.000         0.000
  WSL1515                   1757.855         0.000         0.000         0.000         0.000
  WSL1516                    310.593         0.000         0.000         0.000         0.000
  WSL1518                    308.911         0.000         0.000         0.000         0.000
  WSL1519                    308.877         0.000         0.000         0.000         0.000
  WSL1521                    309.577         0.000         0.000         0.000         0.000
  WSL1543                    308.544         0.000         0.000         0.000         0.000
  WSL1961                    773.770         0.000         0.000         0.000         0.000
  WSL1964                    781.550         0.000         0.000         0.000         0.000
  WSL2010                   1083.087         0.000         0.000         0.000         0.000
  WSL2011                   1087.119         0.000         0.000         0.000         0.000
  WSL2012                   1091.727         0.000         0.000         0.000         0.000
  WSL2013                   1169.275         0.000         0.000         0.000         0.000
  WSL2014                   1469.394         0.000         0.000         0.000         0.000
  WSL2015                   1469.144         0.000         0.000         0.000         0.000
  WSL2016                   1618.281         0.000         0.000         0.000         0.000
  WSL2017                   1619.419         0.000         0.000         0.000         0.000
  WSL2018                   1752.290         0.000         0.000         0.000         0.000
  WSL2019                   1753.243         0.000         0.000         0.000         0.000
  WSL2028                   1079.180         0.000         0.000         0.000         0.000
  WSL2029                   1623.503         0.000         0.000         0.000         0.000
  WSL2038                    133.086         0.000         0.000         0.000         0.000
  WSL2039                    141.106         0.000         0.000         0.000         0.000
  WSL2041                    137.515         0.000         0.000         0.000         0.000
  WSL2294                   1063.887         0.000         0.000         0.000         0.000
  WSL2295                   1063.976         0.000         0.000         0.000         0.000
  WSL2296                   1072.063         0.000         0.000         0.000         0.000
  WSL2297                   1075.444         0.000         0.000         0.000         0.000
  WSL2298                   1067.016         0.000         0.000         0.000         0.000
  WSL2301                   1075.437         0.000         0.000         0.000         0.000
  WSL2302                   1079.713         0.000         0.000         0.000         0.000
  WSL2441                   1063.602         0.000         0.000         0.000         0.000
  WSL2442                    636.454         0.000         0.000         0.000         0.000
  WSL2443                    636.571         0.000         0.000         0.000         0.000
  WSL2444                    633.951         0.000         0.000         0.000         0.000
  WSL2446                    632.555         0.000         0.000         0.000         0.000
  WSL2447                    629.407         0.000         0.000         0.000         0.000
  WSL2448                    625.736         0.000         0.000         0.000         0.000
  WSL2449                    415.116         0.000         0.000         0.000         0.000
  WSL2450                    412.992         0.000         0.000         0.000         0.000
  WSL2451                    412.310         0.000         0.000         0.000         0.000
  WSL2452                    411.080         0.000         0.000         0.000         0.000
  WSL2454                    407.490         0.000         0.000         0.000         0.000
  WSL2478                    406.046         0.000         0.000         0.000         0.000
  WSL2479                    301.898         0.000         0.000         0.000         0.000
  WSL2480                    449.730         0.000         0.000         0.000         0.000
  WSL2482                    445.973         0.000         0.000         0.000         0.000
  WSL2484                    389.361         0.000         0.000         0.000         0.000
  WSL2493                    638.605         0.000         0.000         0.000         0.000
  WSL2867                   1757.153         0.000         0.000         0.000         0.000
  WSL2868                   1761.705         0.000         0.000         0.000         0.000
  WSL348                    1456.204         0.000         0.000         0.000         0.000
  WSL175                    1462.870         0.000         0.000         0.000         0.000
  WSL1467                   2546.877         0.000         0.000         0.000         0.000
  WSL1473                   2550.634         0.000         0.000         0.000         0.000
  XRpipe                    1475.409         0.000         0.000         0.000         0.000
  8                          150.691         0.000         0.000         0.000         0.000
  19                           0.000         0.000         0.000         0.000         0.000
  17                           0.000         0.000         0.000         0.000         0.000
  4                            0.000         0.000         0.000         0.000         0.000
  2                         2889.043         0.000         0.000         0.000         0.000
  XR-Pump-1                  196.492         0.000         0.000         0.000         0.000
  XR-Pump-3                  182.577         0.000         0.000         0.000         0.000
  XR-Pump-2                  187.078         0.000         0.000         0.000         0.000
  XR-Pump-4                  196.492         0.000         0.000         0.000         0.000
  CC-Pump-1                   63.714         0.000         0.000         0.000         0.000
  CC-Pump-2                  185.127         0.000         0.000         0.000         0.000
  JK-Pump-1                   82.836         0.000         0.000         0.000         0.000
  JK-Pump-2                  124.962         0.000         0.000         0.000         0.000
  

  Analysis begun on:  Tue Mar 19 20:20:42 2019
  Analysis ended on:  Tue Mar 19 20:20:43 2019
  Total elapsed time: 00:00:01