
  EPA STORM WATER MANAGEMENT MODEL - VERSION 5.1 (Build 5.2.0.dev1)
  --------------------------------------------------------------

  
  *********************************************************
  NOTE: The summary statistics displayed in this report are
  based on results found at every computational time step,  
  not just on results from each reporting time step.
  *********************************************************
  
  ****************
  Analysis Options
  ****************
  Flow Units ............... MLD
  Process Models:
    Rainfall/Runoff ........ YES
    RDII ................... NO
    Snowmelt ............... NO
    Groundwater ............ NO
    Flow Routing ........... YES
    Ponding Allowed ........ NO
    Water Quality .......... YES
  Infiltration Method ...... GREEN_AMPT
  Flow Routing Method ...... DYNWAVE
  Starting Date ............ 08/28/2015 08:00:00
  Ending Date .............. 08/28/2015 12:00:00
  Antecedent Dry Days ...... 4.0
  Report Time Step ......... 00:01:00
  Wet Time Step ............ 00:01:00
  Dry Time Step ............ 00:01:00
  Routing Time Step ........ 5.00 sec
  Variable Time Step ....... YES
  Maximum Trials ........... 8
  Number of Threads ........ 1
  Head Tolerance ........... 0.001500 m
  
  
  **************************        Volume         Depth
  Runoff Quantity Continuity     hectare-m            mm
  **************************     ---------       -------
  Total Precipitation ......        10.774        38.199
  Evaporation Loss .........         0.000         0.000
  Infiltration Loss ........         3.992        14.152
  Surface Runoff ...........         3.688        13.074
  Final Storage ............         3.101        10.995
  Continuity Error (%) .....        -0.057
  
  
  **************************           COD         NH3-N            TN            TP            SS
  Runoff Quality Continuity             kg            kg            kg            kg            kg
  **************************    ----------    ----------    ----------    ----------    ----------
  Initial Buildup ..........     13074.240         0.000         0.000         0.000         0.000
  Surface Buildup ..........       103.264         0.000         0.000         0.000         0.000
  Wet Deposition ...........         0.000         0.000         0.000         0.000         0.000
  Sweeping Removal .........         0.000         0.000         0.000         0.000         0.000
  Infiltration Loss ........       342.666         0.000         0.000         0.000         0.000
  BMP Removal ..............         0.000         0.000         0.000         0.000         0.000
  Surface Runoff ...........      8536.332         0.000         0.000         0.000         0.000
  Remaining Buildup ........      4299.299         0.000         0.000         0.000         0.000
  Continuity Error (%) .....        -0.006         0.000         0.000         0.000         0.000
  
  
  **************************        Volume        Volume
  Flow Routing Continuity        hectare-m      10^6 ltr
  **************************     ---------     ---------
  Dry Weather Inflow .......         0.000         0.000
  Wet Weather Inflow .......         3.678        36.779
  Groundwater Inflow .......         0.000         0.000
  RDII Inflow ..............         0.000         0.000
  External Inflow ..........         0.561         5.611
  External Outflow .........         1.934        19.342
  Flooding Loss ............         2.213        22.131
  Evaporation Loss .........         0.000         0.000
  Exfiltration Loss ........         0.000         0.000
  Initial Stored Volume ....         0.000         0.000
  Final Stored Volume ......         0.163         1.631
  Continuity Error (%) .....        -1.685
  
  
  **************************           COD         NH3-N            TN            TP            SS
  Quality Routing Continuity            kg            kg            kg            kg            kg
  **************************    ----------    ----------    ----------    ----------    ----------
  Dry Weather Inflow .......         0.000         0.000         0.000         0.000         0.000
  Wet Weather Inflow .......      8526.279         0.000         0.000         0.000         0.000
  Groundwater Inflow .......         0.000         0.000         0.000         0.000         0.000
  RDII Inflow ..............         0.000         0.000         0.000         0.000         0.000
  External Inflow ..........       936.997         0.000         0.000         0.000         0.000
  External Outflow .........      3649.499         0.000         0.000         0.000         0.000
  Flooding Loss ............      5539.991         0.000         0.000         0.000         0.000
  Exfiltration Loss ........         0.000         0.000         0.000         0.000         0.000
  Mass Reacted .............         0.000         0.000         0.000         0.000         0.000
  Initial Stored Mass ......         0.000         0.000         0.000         0.000         0.000
  Final Stored Mass ........       118.845         0.000         0.000         0.000         0.000
  Continuity Error (%) .....         1.637         0.000         0.000         0.000         0.000
  
  
  *************************
  Highest Continuity Errors
  *************************
  Node WS02003059 (1.06%)
  
  
  ***************************
  Time-Step Critical Elements
  ***************************
  Link 8 (65.49%)
  Link WSL2448 (14.40%)
  Link WSL1477 (8.83%)
  Link XRpipe (3.51%)
  Link WSL1516 (3.06%)
  
  
  ********************************
  Highest Flow Instability Indexes
  ********************************
  Link WSL1477 (73)
  Link WSL1516 (67)
  Link WSL1521 (38)
  Link WSL1476 (28)
  Link WSL1515 (16)
  
  
  *************************
  Routing Time Step Summary
  *************************
  Minimum Time Step           :     0.10 sec
  Average Time Step           :     1.12 sec
  Maximum Time Step           :     5.00 sec
  Percent in Steady State     :     0.00
  Average Iterations per Step :     2.63
  Percent Not Converging      :     6.83
  
  
  ***************************
  Subcatchment Runoff Summary
  ***************************
  
  --------------------------------------------------------------------------------------------------------
                            Total      Total      Total      Total      Total       Total     Peak  Runoff
                           Precip      Runon       Evap      Infil     Runoff      Runoff   Runoff   Coeff
  Subcatchment                 mm         mm         mm         mm         mm    10^6 ltr      MLD
  --------------------------------------------------------------------------------------------------------
  1                         38.20      68.92       0.00      13.72      66.96        0.81    14.54   0.625
  2                         38.20       0.00       0.00      10.52      17.14        0.58    11.55   0.449
  3                         38.20       0.00       0.00      10.66      16.04        0.82    16.28   0.420
  4                         38.20       0.00       0.00      10.44      17.79        0.47     9.50   0.466
  5                         38.20      41.90       0.00      13.01      46.88        0.80    14.79   0.585
  6                         38.20       0.00       0.00      10.65      16.12        0.80    15.85   0.422
  7                         38.20       0.00       0.00      16.38      13.47       21.55   405.70   0.353
  8                         38.20       0.00       0.00      10.60      16.52        0.70    13.96   0.433
  9                         38.20      16.37       0.00      11.89      25.84        0.98    18.06   0.474
  17                        38.20       0.00       0.00      10.55      16.91        0.62    12.39   0.443
  18                        38.20       0.00       0.00      10.61      16.46        0.71    14.23   0.431
  28                        38.20      63.21       0.00      14.14      56.11        1.48    25.83   0.553
  29                        38.20      26.38       0.00      12.14      33.10        0.80    14.29   0.512
  30                        38.20      64.70       0.00      13.58      68.69        0.64    12.14   0.668
  31                        38.20       0.00       0.00      10.54      17.00        0.60    12.05   0.445
  33                        38.20       0.00       0.00       9.94      21.04        0.18     3.79   0.551
  34                        38.20      36.92       0.00      12.89      42.19        0.87    16.16   0.562
  35                        38.20       0.00       0.00      10.49      17.43        0.53    10.58   0.456
  36                        38.20      36.73       0.00      13.40      34.78        2.05    36.57   0.464
  39                        38.20       0.00       0.00      10.53      17.11        0.58    11.66   0.448
  40                        38.20       9.25       0.00      11.36      21.70        0.85    16.08   0.457
  41                        38.20       0.00       0.00      10.31      18.69        0.36     7.32   0.489
  42                        38.20       0.00       0.00      10.37      18.23        0.42     8.36   0.477
  43                        38.20       0.00       0.00       9.46      23.58        0.08     1.83   0.617
  44                        38.20     574.24       0.00      21.32     528.25        1.95    36.42   0.863
  45                        38.20       0.00       0.00      10.02      20.55        0.21     4.35   0.538
  46                        38.20      30.69       0.00      12.48      37.33        0.80    14.64   0.542
  47                        38.20       0.00       0.00      10.06      20.33        0.23     4.63   0.532
  48                        38.20      14.24       0.00      11.29      28.31        0.45     8.49   0.540
  55                        38.20      21.35       0.00      11.34      36.23        0.30     5.77   0.608
  56                        38.20      33.44       0.00      12.64      39.17        0.84    15.39   0.547
  57                        38.20       0.00       0.00      10.66      16.09        0.80    16.01   0.421
  59                        38.20       0.00       0.00       9.92      21.15        0.18     3.68   0.554
  60                        38.20      46.26       0.00      12.22      58.14        0.30     5.86   0.688
  61                        38.20       0.00       0.00      10.99      13.13        2.36    46.63   0.344
  62                        38.20       0.00       0.00      11.00      13.02        2.47    48.79   0.341
  64                        38.20       0.00       0.00      10.09      20.10        0.24     4.93   0.526
  
  
  ****************************
  Subcatchment Washoff Summary
  ****************************
  
  ------------------------------------------------------------------------------------------
                                 COD         NH3-N            TN            TP            SS
  Subcatchment                    kg            kg            kg            kg            kg
  ------------------------------------------------------------------------------------------
  1                          127.218         0.000         0.000         0.000         0.000
  2                            0.000         0.000         0.000         0.000         0.000
  3                            0.000         0.000         0.000         0.000         0.000
  4                          107.102         0.000         0.000         0.000         0.000
  5                          184.266         0.000         0.000         0.000         0.000
  6                          186.295         0.000         0.000         0.000         0.000
  7                         5246.993         0.000         0.000         0.000         0.000
  8                          162.713         0.000         0.000         0.000         0.000
  9                          240.992         0.000         0.000         0.000         0.000
  17                         143.072         0.000         0.000         0.000         0.000
  18                         166.116         0.000         0.000         0.000         0.000
  28                         352.439         0.000         0.000         0.000         0.000
  29                         184.606         0.000         0.000         0.000         0.000
  30                         144.976         0.000         0.000         0.000         0.000
  31                         138.881         0.000         0.000         0.000         0.000
  33                          38.012         0.000         0.000         0.000         0.000
  34                         201.545         0.000         0.000         0.000         0.000
  35                         120.472         0.000         0.000         0.000         0.000
  36                         526.858         0.000         0.000         0.000         0.000
  39                         133.965         0.000         0.000         0.000         0.000
  40                         208.041         0.000         0.000         0.000         0.000
  41                          80.316         0.000         0.000         0.000         0.000
  42                          93.102         0.000         0.000         0.000         0.000
  43                          16.300         0.000         0.000         0.000         0.000
  44                         511.945         0.000         0.000         0.000         0.000
  45                          44.580         0.000         0.000         0.000         0.000
  46                         185.034         0.000         0.000         0.000         0.000
  47                          47.827         0.000         0.000         0.000         0.000
  48                         100.409         0.000         0.000         0.000         0.000
  55                          63.415         0.000         0.000         0.000         0.000
  56                         191.410         0.000         0.000         0.000         0.000
  57                         188.292         0.000         0.000         0.000         0.000
  59                          36.768         0.000         0.000         0.000         0.000
  60                          63.650         0.000         0.000         0.000         0.000
  61                         569.033         0.000         0.000         0.000         0.000
  62                         595.631         0.000         0.000         0.000         0.000
  64                          51.453         0.000         0.000         0.000         0.000
  ------------------------------------------------------------------------------------------
  System                   11453.724         0.000         0.000         0.000         0.000
  
  
  ******************
  Node Depth Summary
  ******************
  
  ---------------------------------------------------------------------------------
                                 Average  Maximum  Maximum  Time of Max    Reported
                                   Depth    Depth      HGL   Occurrence   Max Depth
  Node                 Type       Meters   Meters   Meters  days hr:min      Meters
  ---------------------------------------------------------------------------------
  WS01000070           JUNCTION     0.00     0.00     0.00     0  00:00        0.00
  WS01000323           JUNCTION     0.00     0.00     0.00     0  00:00        0.00
  WS01000533           JUNCTION     0.00     0.00     6.86     0  00:00        0.00
  WS01005172           JUNCTION     0.00     0.00     0.00     0  00:00        0.00
  WS01005181           JUNCTION     0.00     0.00     0.00     0  00:00        0.00
  WS01009841           JUNCTION     0.00     0.00     0.00     0  00:00        0.00
  WS02000078           JUNCTION     0.00     0.00     0.00     0  00:00        0.00
  WS02000112           JUNCTION     0.00     0.00     0.00     0  00:00        0.00
  WS02000136           JUNCTION     0.00     0.00     0.00     0  00:00        0.00
  WS02001211           JUNCTION     0.61     0.96     5.80     0  02:58        0.93
  WS02001212           JUNCTION     0.62     0.95     5.75     0  02:59        0.95
  WS02001213           JUNCTION     0.72     2.06     6.76     0  02:56        1.05
  WS02003059           JUNCTION     0.74     2.71     7.36     0  02:56        1.09
  WS02003060           JUNCTION     0.82     1.30     5.85     0  02:56        1.18
  WS02003066           JUNCTION     0.39     0.61     5.91     0  02:51        0.55
  WS02003067           JUNCTION     0.66     0.99     6.31     0  02:51        0.90
  WS02003071           JUNCTION     0.86     1.37     5.77     0  02:56        1.19
  WS02003072           JUNCTION     0.74     1.15     5.52     0  02:56        1.14
  WS02003073           JUNCTION     0.81     1.89     6.13     0  02:55        1.20
  WS02003076           JUNCTION     0.74     1.12     5.35     0  02:55        1.06
  WS02003077           JUNCTION     0.15     0.42     5.43     0  02:55        0.42
  WS02003078           JUNCTION     0.09     0.14     7.04     0  02:44        0.14
  WS02003079           JUNCTION     0.30     0.46     7.37     0  02:53        0.46
  WS02003093           JUNCTION     0.14     0.27     7.61     0  02:54        0.27
  WS02003094           JUNCTION     0.25     0.39     7.61     0  02:53        0.39
  WS02003098           JUNCTION     0.21     0.37     7.54     0  02:52        0.37
  WS02003099           JUNCTION     0.33     0.50     7.54     0  02:53        0.50
  WS02003102           JUNCTION     0.31     0.49     7.52     0  02:52        0.49
  WS02003103           JUNCTION     0.33     0.51     7.48     0  02:52        0.51
  WS02003104           JUNCTION     0.32     0.50     7.46     0  02:52        0.50
  WS02003106           JUNCTION     0.32     0.49     7.42     0  02:53        0.49
  WS02004050           JUNCTION     0.53     0.75     4.97     0  02:57        0.75
  WS02004053           JUNCTION     0.00     0.00     0.00     0  00:00        0.00
  WS02004136           JUNCTION     0.17     0.21     6.94     0  00:01        0.18
  WS02004139           JUNCTION     0.51     0.85     5.81     0  02:58        0.85
  WS02004401           JUNCTION     0.86     1.32     7.32     0  03:00        1.32
  WS02004402           JUNCTION     0.87     1.32     7.28     0  02:56        1.32
  WS02004403           JUNCTION     0.86     1.31     7.24     0  02:47        1.30
  WS02004404           JUNCTION     0.92     1.36     7.21     0  02:47        1.35
  WS02004405           JUNCTION     0.92     1.36     7.20     0  02:47        1.34
  WS02004406           JUNCTION     0.88     1.32     7.15     0  02:47        1.28
  WS02004407           JUNCTION     0.82     1.24     7.04     0  02:47        1.18
  WS02004409           JUNCTION     0.79     1.17     6.94     0  02:47        1.13
  WS02004410           JUNCTION     0.74     1.06     6.78     0  02:47        1.06
  WS02004411           JUNCTION     0.68     0.95     6.63     0  02:52        0.94
  WS02004412           JUNCTION     0.60     0.84     6.48     0  02:51        0.84
  WS02004413           JUNCTION     0.62     0.88     6.35     0  02:51        0.84
  WS02004997           JUNCTION     6.12     6.69     8.30     0  02:47        6.69
  WS02005192           JUNCTION     0.53     3.42    11.29     0  02:46        0.97
  WS02005193           JUNCTION     0.56     3.16    10.98     0  02:45        0.99
  WS02005196           JUNCTION     0.55     3.31    11.16     0  02:46        0.98
  WS02006109           JUNCTION     0.92     1.75     8.37     0  02:46        1.47
  WS02006110           JUNCTION     0.82     1.76     8.36     0  02:46        1.34
  WS02006111           JUNCTION     0.56     1.93     8.51     0  02:46        1.04
  WS02006112           JUNCTION     0.88     1.90     8.02     0  02:46        1.37
  WS02006113           JUNCTION     0.72     1.76     8.35     0  02:46        1.22
  WS02006115           JUNCTION     0.84     1.81     7.91     0  02:46        1.32
  WS02006116           JUNCTION     0.87     1.87     7.91     0  02:46        1.33
  WS02006183           JUNCTION     0.00     0.00     0.00     0  00:00        0.00
  WS02006228           JUNCTION     0.99     1.67     8.32     0  02:46        1.57
  WS02006229           JUNCTION     0.97     1.55     8.24     0  02:57        1.55
  WS02006230           JUNCTION     1.00     1.56     8.31     0  03:00        1.56
  WS02006231           JUNCTION     0.94     1.49     8.39     0  02:47        1.48
  WS02006232           JUNCTION     0.90     1.42     8.45     0  02:47        1.42
  WS02006234           JUNCTION     0.86     1.34     8.50     0  02:50        1.34
  WS02006235           JUNCTION     0.90     1.36     8.53     0  02:50        1.36
  WS02006238           JUNCTION     0.91     1.36     8.54     0  02:50        1.36
  WS02006239           JUNCTION     0.89     1.67     8.88     0  02:44        1.33
  WS02006242           JUNCTION     0.85     1.55     8.85     0  02:43        1.22
  WS02006240           JUNCTION     0.83     1.71     9.00     0  02:44        1.24
  WS02006243           JUNCTION     0.75     1.48     8.90     0  02:44        1.09
  WS02006245           JUNCTION     0.71     1.56     9.05     0  02:44        1.02
  WS02006247           JUNCTION     0.70     1.24     8.75     0  02:44        1.00
  WS02006248           JUNCTION     0.63     0.91     8.50     0  03:01        0.91
  WS02006249           JUNCTION     0.66     1.09     8.69     0  02:44        0.97
  WS02006251           JUNCTION     0.66     2.21     9.88     0  02:46        1.06
  WS02006253           JUNCTION     0.57     3.04    10.84     0  02:46        1.00
  WS02618401           JUNCTION     0.00     0.00     0.00     0  00:00        0.00
  WS8802               JUNCTION     0.00     0.00     4.38     0  00:00        0.00
  WSA1649              JUNCTION     0.00     0.00     0.00     0  00:00        0.00
  WSF200               JUNCTION     0.40     0.66     5.76     0  02:51        0.60
  XR-Inflow            JUNCTION     5.99     6.55     8.36     0  01:41        6.55
  WS02004114           JUNCTION     6.08     6.66     8.26     0  02:44        6.65
  outfall-2            OUTFALL      0.00     0.00     7.00     0  00:00        0.00
  outfall-5            OUTFALL      0.14     0.31     7.98     0  03:01        0.31
  outfall-14           OUTFALL      0.00     0.00     7.66     0  00:00        0.00
  outfall-16           OUTFALL      0.00     0.00     8.39     0  00:00        0.00
  12                   OUTFALL      0.53     0.73     0.73     0  02:57        0.72
  XR-storage           STORAGE      7.10     7.72     8.22     0  01:22        7.72
  CC-storage           STORAGE      3.21     5.63     8.81     0  02:24        5.63
  JK-storage           STORAGE      2.16     4.80     7.80     0  02:22        4.80
  
  
  *******************
  Node Inflow Summary
  *******************
  
  -------------------------------------------------------------------------------------------------
                                  Maximum  Maximum                  Lateral       Total        Flow
                                  Lateral    Total  Time of Max      Inflow      Inflow     Balance
                                   Inflow   Inflow   Occurrence      Volume      Volume       Error
  Node                 Type           MLD      MLD  days hr:min    10^6 ltr    10^6 ltr     Percent
  -------------------------------------------------------------------------------------------------
  WS01000070           JUNCTION      0.00     0.00     0  00:00           0           0       0.000 ltr
  WS01000323           JUNCTION      0.00     0.00     0  00:00           0           0       0.000 ltr
  WS01000533           JUNCTION      0.00     0.00     0  00:00           0           0       0.000 ltr
  WS01005172           JUNCTION      0.00     0.00     0  00:00           0           0       0.000 ltr
  WS01005181           JUNCTION      0.00     0.00     0  00:00           0           0       0.000 ltr
  WS01009841           JUNCTION      0.00     0.00     0  00:00           0           0       0.000 ltr
  WS02000078           JUNCTION      0.00     0.00     0  00:00           0           0       0.000 ltr
  WS02000112           JUNCTION      0.00     0.00     0  00:00           0           0       0.000 ltr
  WS02000136           JUNCTION      0.00     0.00     0  00:00           0           0       0.000 ltr
  WS02001211           JUNCTION      0.25    44.16     0  03:45      0.0407        4.46       0.958
  WS02001212           JUNCTION      0.21    47.87     0  02:59      0.0346        4.48       0.536
  WS02001213           JUNCTION      0.30    54.43     0  03:59      0.0489        4.51       0.741
  WS02003059           JUNCTION      0.23    47.51     0  02:59      0.0378        4.51       1.072
  WS02003060           JUNCTION      0.16   215.72     0  03:00      0.0252        15.7       0.464
  WS02003066           JUNCTION      0.08   216.04     0  02:51      0.0122        11.2       0.171
  WS02003067           JUNCTION      0.26   168.95     0  03:00      0.0395        11.2       0.169
  WS02003071           JUNCTION      0.35   207.59     0  03:01      0.0538        15.6       0.436
  WS02003072           JUNCTION      0.24   205.93     0  03:01      0.0382        15.6       0.288
  WS02003073           JUNCTION      0.07   249.69     0  03:07     0.00978        17.3       0.232
  WS02003076           JUNCTION      0.72   253.42     0  02:56        0.12        17.3       0.148
  WS02003077           JUNCTION      0.04    33.80     0  02:55      0.0059        1.68       0.052
  WS02003078           JUNCTION      0.03    41.52     0  02:44     0.00419        1.68       0.029
  WS02003079           JUNCTION      0.04    31.85     0  02:53     0.00561        1.68       0.213
  WS02003093           JUNCTION      0.02     0.25     0  02:38     0.00306      0.0058      18.550
  WS02003094           JUNCTION     18.12    18.14     0  02:50       0.984       0.989       0.670
  WS02003098           JUNCTION      0.02    18.14     0  02:50     0.00293       0.983       0.471
  WS02003099           JUNCTION      0.07    18.27     0  02:55      0.0109       0.989       0.955
  WS02003102           JUNCTION     13.98    31.78     0  02:51       0.703        1.68       0.512
  WS02003103           JUNCTION      0.02    31.75     0  02:52     0.00239        1.68       0.335
  WS02003104           JUNCTION      0.02    31.76     0  02:52     0.00302        1.67       0.285
  WS02003106           JUNCTION      0.05    31.79     0  02:52     0.00727        1.68       0.337
  WS02004050           JUNCTION      0.72   279.92     0  03:05       0.119        17.4       0.645
  WS02004053           JUNCTION      0.00     0.00     0  00:00           0           0       0.000 ltr
  WS02004136           JUNCTION      0.44    32.92     0  01:40      0.0703        4.39       0.073
  WS02004139           JUNCTION      0.38    39.53     0  00:01      0.0619        4.45       0.598
  WS02004401           JUNCTION      0.05    96.23     0  02:54     0.00897        7.68       0.361
  WS02004402           JUNCTION      0.22    97.02     0  03:02      0.0335        7.68       0.323
  WS02004403           JUNCTION      0.23    97.21     0  03:02      0.0349        7.69       0.284
  WS02004404           JUNCTION      0.24    97.41     0  03:02      0.0365        7.71       0.210
  WS02004405           JUNCTION      9.57   106.48     0  02:53       0.484        8.18       0.291
  WS02004406           JUNCTION     25.95   131.30     0  02:57        1.49        9.64       0.386
  WS02004407           JUNCTION      0.11   131.40     0  02:57      0.0171        9.63       0.346
  WS02004409           JUNCTION     14.98   146.31     0  03:00       0.829        10.4       0.285
  WS02004410           JUNCTION      0.15   146.44     0  02:57      0.0226        10.4       0.285
  WS02004411           JUNCTION      0.25   147.51     0  02:57      0.0379        10.4       0.261
  WS02004412           JUNCTION     15.94   163.81     0  02:52        0.81        11.2       0.216
  WS02004413           JUNCTION      0.11   165.04     0  03:01      0.0172        11.2       0.203
  WS02004997           JUNCTION      0.42    63.62     0  02:44      0.0693        8.04       0.511
  WS02005192           JUNCTION     16.11    16.11     0  02:46       0.821       0.821       0.389
  WS02005193           JUNCTION      0.09    18.56     0  02:46      0.0146       0.849       1.006
  WS02005196           JUNCTION      0.12    17.49     0  02:46       0.019       0.839       0.935
  WS02006109           JUNCTION      0.08    82.15     0  03:10      0.0135        6.86       0.359
  WS02006110           JUNCTION      0.08    82.23     0  03:10      0.0132        6.85       0.342
  WS02006111           JUNCTION      0.24    98.51     0  02:45      0.0366        7.69       0.151
  WS02006112           JUNCTION      0.18    95.89     0  02:54      0.0273        7.71       0.353
  WS02006113           JUNCTION     16.43    97.38     0  02:45       0.843        7.67       0.247
  WS02006115           JUNCTION      0.08    95.97     0  02:54      0.0134        7.69       0.399
  WS02006116           JUNCTION      0.24    96.17     0  02:54       0.036         7.7       0.369
  WS02006183           JUNCTION      0.00     0.00     0  00:00           0           0       0.000 ltr
  WS02006228           JUNCTION     36.57    82.07     0  03:10        1.98        6.87       0.269
  WS02006229           JUNCTION      0.13    56.52     0  03:40        0.02        4.91       0.330
  WS02006230           JUNCTION      0.07    56.21     0  03:41      0.0116        4.91       0.410
  WS02006231           JUNCTION      0.13    56.14     0  03:41      0.0205        4.91       0.313
  WS02006232           JUNCTION     11.63    56.03     0  03:41        0.59        4.91       0.323
  WS02006234           JUNCTION      0.14    52.71     0  03:41      0.0216        4.33       0.331
  WS02006235           JUNCTION      0.14    52.59     0  03:41      0.0223        4.32       0.187
  WS02006238           JUNCTION      0.15    52.47     0  03:41      0.0235        4.32       0.238
  WS02006239           JUNCTION      0.11    35.74     0  02:01      0.0174        2.12       0.756
  WS02006242           JUNCTION      0.08    37.41     0  02:43      0.0129        2.13       0.904
  WS02006240           JUNCTION      0.06    36.47     0  02:01     0.00992        2.12       0.809
  WS02006243           JUNCTION      0.17    40.07     0  02:44      0.0269        2.14       0.840
  WS02006245           JUNCTION      0.07    42.39     0  02:44      0.0113        2.12       0.654
  WS02006247           JUNCTION     14.67    43.51     0  02:44       0.832        2.35       0.524
  WS02006248           JUNCTION      0.12    72.74     0  03:01      0.0192        3.53       0.321
  WS02006249           JUNCTION      0.19    56.78     0  02:50      0.0286        3.29       0.464
  WS02006251           JUNCTION      5.83    56.61     0  02:50        0.31        3.28       0.479
  WS02006253           JUNCTION      0.11    50.77     0  02:50      0.0173        2.98       0.285
  WS02618401           JUNCTION      0.00     0.00     0  00:00           0           0       0.000 ltr
  WS8802               JUNCTION      0.00     0.00     0  00:00           0           0       0.000 ltr
  WSA1649              JUNCTION      0.00     0.00     0  00:00           0           0       0.000 ltr
  WSF200               JUNCTION      0.14   197.09     0  02:51      0.0216        11.2       0.071
  XR-Inflow            JUNCTION    423.83   423.83     0  03:00        24.8        24.8       0.111
  WS02004114           JUNCTION      0.57    64.16     0  02:45      0.0916        8.09       0.330
  outfall-2            OUTFALL       0.00     0.00     0  00:00           0           0       0.000 ltr
  outfall-5            OUTFALL       0.00    72.74     0  03:01           0        2.02       0.000
  outfall-14           OUTFALL       0.00     0.00     0  00:00           0           0       0.000 ltr
  outfall-16           OUTFALL       0.00     0.00     0  00:00           0           0       0.000 ltr
  12                   OUTFALL       0.00   244.26     0  02:57           0        17.3       0.000
  XR-storage           STORAGE       0.00    64.17     0  02:44           0        8.07      -0.699
  CC-storage           STORAGE      48.24    48.24     0  02:48        2.65        2.65      -9.278
  JK-storage           STORAGE      49.78    49.78     0  02:48        2.65        2.65     -10.671
  
  
  **********************
  Node Surcharge Summary
  **********************
  
  Surcharging occurs when water rises above the top of the highest conduit.
  ---------------------------------------------------------------------
                                               Max. Height   Min. Depth
                                   Hours       Above Crown    Below Rim
  Node                 Type      Surcharged         Meters       Meters
  ---------------------------------------------------------------------
  WS01000070           JUNCTION        4.00          0.000        0.000
  WS01000323           JUNCTION        4.00          0.000        0.000
  WS01000533           JUNCTION        4.00          0.000        2.147
  WS01005172           JUNCTION        4.00          0.000        0.000
  WS01005181           JUNCTION        4.00          0.000        0.000
  WS01009841           JUNCTION        4.00          0.000        0.000
  WS02000078           JUNCTION        4.00          0.000        0.000
  WS02000112           JUNCTION        4.00          0.000        0.000
  WS02000136           JUNCTION        4.00          0.000        0.000
  WS02001213           JUNCTION        0.05          1.060        2.302
  WS02003059           JUNCTION        0.12          1.712        2.005
  WS02003060           JUNCTION        0.01          0.097        3.135
  WS02003071           JUNCTION        0.01          0.166        3.391
  WS02003073           JUNCTION        0.01          0.693        3.382
  WS02004053           JUNCTION        4.00          0.000        0.000
  WS02004402           JUNCTION        0.68          0.321        1.419
  WS02004403           JUNCTION        0.64          0.305        1.725
  WS02004404           JUNCTION        0.95          0.364        2.416
  WS02004405           JUNCTION        0.91          0.358        2.442
  WS02004406           JUNCTION        0.66          0.318        2.132
  WS02004407           JUNCTION        0.49          0.236        2.107
  WS02004409           JUNCTION        0.38          0.168        2.192
  WS02004410           JUNCTION        0.23          0.064        2.476
  WS02004997           JUNCTION        3.08          5.795        0.205
  WS02005192           JUNCTION        0.73          2.819        0.000
  WS02005193           JUNCTION        0.89          2.560        0.057
  WS02005196           JUNCTION        0.78          2.706        0.000
  WS02006109           JUNCTION        1.29          0.953        0.885
  WS02006110           JUNCTION        0.97          0.964        0.881
  WS02006111           JUNCTION        0.44          1.131        0.746
  WS02006112           JUNCTION        0.73          0.897        0.786
  WS02006113           JUNCTION        0.67          0.955        0.978
  WS02006115           JUNCTION        0.61          0.811        1.488
  WS02006116           JUNCTION        0.68          0.868        1.482
  WS02006183           JUNCTION        4.00          0.000        0.000
  WS02006228           JUNCTION        1.31          0.866        1.365
  WS02006229           JUNCTION        1.30          0.749        1.705
  WS02006231           JUNCTION        1.58          0.790        0.753
  WS02006232           JUNCTION        1.47          0.723        0.766
  WS02006234           JUNCTION        1.37          0.639        0.618
  WS02006235           JUNCTION        1.45          0.662        0.632
  WS02006238           JUNCTION        1.45          0.662        0.772
  WS02006239           JUNCTION        1.47          0.970        0.359
  WS02006242           JUNCTION        1.45          0.849        0.000
  WS02006240           JUNCTION        1.41          1.006        0.397
  WS02006243           JUNCTION        1.36          0.780        0.000
  WS02006245           JUNCTION        1.26          0.855        0.000
  WS02006247           JUNCTION        1.26          0.536        0.224
  WS02006249           JUNCTION        1.25          0.388        0.000
  WS02006251           JUNCTION        1.06          1.510        0.000
  WS02006253           JUNCTION        0.67          2.338        0.116
  WS02618401           JUNCTION        4.00          0.000        0.000
  WS8802               JUNCTION        4.00          0.000        4.942
  WSA1649              JUNCTION        4.00          0.000        0.000
  XR-Inflow            JUNCTION        3.05          5.650        0.000
  WS02004114           JUNCTION        3.09          5.758        0.757
  
  
  *********************
  Node Flooding Summary
  *********************
  
  Flooding refers to all water that overflows a node, whether it ponds or not.
  --------------------------------------------------------------------------
                                                             Total   Maximum
                                 Maximum   Time of Max       Flood    Ponded
                        Hours       Rate    Occurrence      Volume     Depth
  Node                 Flooded       MLD   days hr:min    10^6 ltr    Meters
  --------------------------------------------------------------------------
  WS02005192              0.01      8.94      0  02:46       0.000     0.000
  WS02005196              0.01      7.47      0  02:46       0.000     0.000
  WS02006242              0.01     12.11      0  02:43       0.000     0.000
  WS02006243              0.01     14.57      0  02:44       0.000     0.000
  WS02006245              0.01     10.83      0  02:44       0.000     0.000
  WS02006249              0.01      9.13      0  02:44       0.000     0.000
  WS02006251              0.01      4.86      0  02:46       0.000     0.000
  XR-Inflow               2.30    360.68      0  03:00      16.841     0.000
  XR-storage              2.63     64.06      0  02:40       3.746     0.000
  CC-storage              0.90     44.68      0  02:40       0.794     0.000
  JK-storage              0.75     45.99      0  02:40       0.753     0.000
  
  
  **********************
  Storage Volume Summary
  **********************
  
  --------------------------------------------------------------------------------------------------
                         Average     Avg  Evap Exfil       Maximum     Max    Time of Max    Maximum
                          Volume    Pcnt  Pcnt  Pcnt        Volume    Pcnt     Occurrence    Outflow
  Storage Unit           1000 m3    Full  Loss  Loss       1000 m3    Full    days hr:min        MLD
  --------------------------------------------------------------------------------------------------
  XR-storage               0.058      92     0     0         0.063     100       0  01:22      32.48
  CC-storage               0.091      57     0     0         0.159     100       0  02:24      34.56
  JK-storage               0.061      45     0     0         0.136     100       0  02:22      34.56
  
  
  ***********************
  Outfall Loading Summary
  ***********************
  
  ---------------------------------------------------------------------------------------------------------------------------------
                         Flow       Avg       Max       Total         Total         Total         Total         Total         Total
                         Freq      Flow      Flow      Volume           COD         NH3-N            TN            TP            SS
  Outfall Node           Pcnt       MLD       MLD    10^6 ltr            kg            kg            kg            kg            kg
  ---------------------------------------------------------------------------------------------------------------------------------
  outfall-2              0.00      0.00      0.00       0.000         0.000         0.000         0.000         0.000         0.000
  outfall-5             68.45     38.98     72.74       2.021       390.529         0.000         0.000         0.000         0.000
  outfall-14             0.00      0.00      0.00       0.000         0.000         0.000         0.000         0.000         0.000
  outfall-16             0.00      0.00      0.00       0.000         0.000         0.000         0.000         0.000         0.000
  12                    99.99    155.61    244.26      17.321      3259.392         0.000         0.000         0.000         0.000
  ---------------------------------------------------------------------------------------------------------------------------------
  System                33.69    194.59    316.81      19.342      3649.922         0.000         0.000         0.000         0.000
  
  
  ********************
  Link Flow Summary
  ********************
  
  -----------------------------------------------------------------------------
                                 Maximum  Time of Max   Maximum    Max/    Max/
                                  |Flow|   Occurrence   |Veloc|    Full    Full
  Link                 Type          MLD  days hr:min     m/sec    Flow   Depth
  -----------------------------------------------------------------------------
  WSL49                CONDUIT    252.70     0  02:56      2.92    3.14    0.94
  WSL1465              CONDUIT     50.18     0  03:47      1.99    0.46    1.00
  WSL1472              CONDUIT    205.71     0  03:01      2.29    2.35    0.98
  WSL1475              CONDUIT    279.21     0  03:05      3.50    2.98    0.63
  WSL1476              CONDUIT     46.53     0  02:56      1.52    0.23    0.77
  WSL1477              CONDUIT     41.49     0  02:44      3.41    1.64    0.50
  WSL1490              CONDUIT     47.66     0  02:59      1.60    0.77    0.94
  WSL1491              CONDUIT     54.15     0  03:59      1.86    0.32    0.98
  WSL1492              CONDUIT     47.28     0  02:59      1.71    0.73    1.00
  WSL1507              CONDUIT      0.25     0  03:02      0.11    0.00    0.41
  WSL1508              CONDUIT     18.12     0  02:50      0.93    0.51    0.47
  WSL1512              CONDUIT     18.21     0  02:55      0.66    0.13    0.44
  WSL1513              CONDUIT     18.30     0  03:02      0.67    1.08    0.62
  WSL1515              CONDUIT    215.97     0  02:51      3.49    2.11    0.61
  WSL1516              CONDUIT     33.77     0  02:55      5.76    0.12    0.47
  WSL1518              CONDUIT     31.74     0  02:52      1.12    0.62    0.62
  WSL1519              CONDUIT     31.75     0  02:52      1.14    0.79    0.61
  WSL1521              CONDUIT     31.82     0  02:53      1.20    0.91    0.59
  WSL1543              CONDUIT     31.74     0  02:52      1.11    0.99    0.63
  WSL1961              CONDUIT     39.15     0  00:01      3.75    0.08    0.52
  WSL1964              CONDUIT     43.93     0  03:45      1.79    0.24    0.74
  WSL2010              CONDUIT     97.02     0  03:02      1.43    1.24    1.00
  WSL2011              CONDUIT     97.21     0  03:02      1.43    0.63    1.00
  WSL2012              CONDUIT     97.41     0  03:01      1.44    1.48    1.00
  WSL2013              CONDUIT    106.48     0  02:53      1.57    2.64    1.00
  WSL2014              CONDUIT    131.30     0  02:57      1.93    2.10    1.00
  WSL2015              CONDUIT    131.34     0  03:00      1.94    1.76    1.00
  WSL2016              CONDUIT    146.31     0  02:57      2.16    1.68    1.00
  WSL2017              CONDUIT    147.29     0  02:57      2.20    1.79    0.98
  WSL2018              CONDUIT    164.94     0  03:01      2.83    0.98    0.85
  WSL2019              CONDUIT    168.74     0  03:00      2.85    1.00    0.91
  WSL2028              CONDUIT     96.84     0  03:02      1.43    1.03    1.00
  WSL2029              CONDUIT    148.87     0  03:01      2.41    1.88    0.88
  WSL2038              CONDUIT     17.38     0  02:46      1.09    0.87    1.00
  WSL2039              CONDUIT     19.33     0  02:46      1.44    0.99    1.00
  WSL2041              CONDUIT     18.47     0  02:46      1.20    0.91    1.00
  WSL2294              CONDUIT     82.15     0  03:10      1.89    2.76    1.00
  WSL2295              CONDUIT     82.23     0  03:10      1.91    3.70    1.00
  WSL2296              CONDUIT     95.73     0  02:54      2.24    0.54    1.00
  WSL2297              CONDUIT     95.89     0  02:54      1.41    1.84    1.00
  WSL2298              CONDUIT     98.30     0  02:45      2.64    4.52    1.00
  WSL2301              CONDUIT     95.97     0  02:54      1.41    0.88    1.00
  WSL2302              CONDUIT     96.17     0  02:54      1.42    1.18    1.00
  WSL2441              CONDUIT     82.07     0  03:10      1.89    2.10    1.00
  WSL2442              CONDUIT     56.41     0  03:40      1.70    1.44    1.00
  WSL2443              CONDUIT     56.14     0  03:41      1.69    0.88    1.00
  WSL2444              CONDUIT     56.03     0  03:41      1.79    0.89    1.00
  WSL2446              CONDUIT     52.72     0  03:41      1.80    0.90    1.00
  WSL2447              CONDUIT     52.60     0  03:41      1.71    2.71    1.00
  WSL2448              CONDUIT     52.47     0  03:41      1.61    1.48    1.00
  WSL2449              CONDUIT     35.12     0  02:01      1.23    1.23    1.00
  WSL2450              CONDUIT     35.64     0  02:01      1.26    0.74    1.00
  WSL2451              CONDUIT     36.41     0  02:01      1.25    2.37    1.00
  WSL2452              CONDUIT     37.34     0  02:43      1.29    0.71    1.00
  WSL2454              CONDUIT     39.92     0  02:44      1.46    0.93    1.00
  WSL2478              CONDUIT     42.32     0  02:44      1.45    1.49    1.00
  WSL2479              CONDUIT     36.10     0  02:01      1.29    0.69    1.00
  WSL2480              CONDUIT     56.78     0  02:50      1.71    2.63    1.00
  WSL2482              CONDUIT     56.61     0  02:50      1.70    1.47    1.00
  WSL2484              CONDUIT     50.79     0  02:50      1.53    0.72    1.00
  WSL2493              CONDUIT     56.52     0  03:40      1.30    0.95    1.00
  WSL2867              CONDUIT    196.96     0  02:51      4.55    0.40    0.49
  WSL2868              CONDUIT    182.07     0  02:51      2.80    0.35    0.74
  WSL348               CONDUIT     63.20     0  02:44      1.88    0.58    1.00
  WSL175               CONDUIT     63.62     0  02:45      2.44    2.14    1.00
  WSL1467              CONDUIT    207.30     0  03:01      2.16    1.10    1.00
  WSL1473              CONDUIT    208.55     0  03:06      2.44    0.85    0.98
  XRpipe               CONDUIT     64.17     0  02:44      8.80    0.16    1.00
  8                    CONDUIT     72.74     0  03:01      7.95    0.96    0.79
  19                   CONDUIT      0.00     0  00:00      0.00    0.00    0.00
  17                   CONDUIT      0.00     0  00:00      0.00    0.00    0.00
  4                    CONDUIT      0.00     0  00:00      0.00    0.00    0.00
  2                    CONDUIT    244.26     0  02:57      4.60    0.88    0.74
  XR-Pump-1            PUMP         8.12     0  00:01              1.00
  XR-Pump-3            PUMP         8.12     0  00:01              1.00
  XR-Pump-2            PUMP         8.12     0  00:01              1.00
  XR-Pump-4            PUMP         8.12     0  00:01              1.00
  CC-Pump-1            PUMP        17.28     0  02:50              1.00
  CC-Pump-2            PUMP        17.28     0  01:40              1.00
  JK-Pump-1            PUMP        17.28     0  02:50              1.00
  JK-Pump-2            PUMP        17.28     0  01:40              1.00
  
  
  ***************************
  Flow Classification Summary
  ***************************
  
  -------------------------------------------------------------------------------------
                      Adjusted    ---------- Fraction of Time in Flow Class ---------- 
                       /Actual         Up    Down  Sub   Sup   Up    Down  Norm  Inlet 
  Conduit               Length    Dry  Dry   Dry   Crit  Crit  Crit  Crit  Ltd   Ctrl  
  -------------------------------------------------------------------------------------
  WSL49                   1.00   0.00  0.00  0.00  1.00  0.00  0.00  0.00  0.00  0.00
  WSL1465                 1.00   0.00  0.00  0.00  1.00  0.00  0.00  0.00  0.06  0.00
  WSL1472                 1.00   0.00  0.00  0.00  1.00  0.00  0.00  0.00  0.00  0.00
  WSL1475                 1.00   0.00  0.00  0.00  0.13  0.87  0.00  0.00  0.00  0.00
  WSL1476                 1.00   0.00  0.00  0.00  1.00  0.00  0.00  0.00  0.93  0.00
  WSL1477                 1.00   0.00  0.00  0.00  0.00  1.00  0.00  0.00  0.30  0.00
  WSL1490                 1.00   0.00  0.00  0.00  1.00  0.00  0.00  0.00  0.01  0.00
  WSL1491                 1.00   0.00  0.00  0.00  1.00  0.00  0.00  0.00  0.08  0.00
  WSL1492                 1.00   0.00  0.00  0.00  1.00  0.00  0.00  0.00  0.02  0.00
  WSL1507                 1.00   0.00  0.00  0.00  1.00  0.00  0.00  0.00  0.37  0.00
  WSL1508                 1.00   0.00  0.00  0.00  1.00  0.00  0.00  0.00  0.00  0.00
  WSL1512                 1.00   0.00  0.00  0.00  1.00  0.00  0.00  0.00  0.61  0.00
  WSL1513                 1.00   0.00  0.00  0.00  1.00  0.00  0.00  0.00  0.00  0.00
  WSL1515                 1.00   0.00  0.00  0.00  0.17  0.83  0.00  0.00  0.03  0.00
  WSL1516                 1.00   0.00  0.00  0.00  0.00  1.00  0.00  0.00  0.91  0.00
  WSL1518                 1.00   0.00  0.00  0.00  1.00  0.00  0.00  0.00  0.34  0.00
  WSL1519                 1.00   0.00  0.00  0.00  1.00  0.00  0.00  0.00  0.30  0.00
  WSL1521                 1.00   0.00  0.00  0.00  1.00  0.00  0.00  0.00  0.02  0.00
  WSL1543                 1.00   0.00  0.00  0.00  1.00  0.00  0.00  0.00  0.02  0.00
  WSL1961                 1.00   0.00  0.00  0.00  0.62  0.38  0.00  0.00  0.99  0.00
  WSL1964                 1.00   0.00  0.00  0.00  1.00  0.00  0.00  0.00  0.10  0.00
  WSL2010                 1.00   0.00  0.00  0.00  1.00  0.00  0.00  0.00  0.00  0.00
  WSL2011                 1.00   0.00  0.00  0.00  1.00  0.00  0.00  0.00  0.18  0.00
  WSL2012                 1.00   0.00  0.00  0.00  1.00  0.00  0.00  0.00  0.00  0.00
  WSL2013                 1.00   0.00  0.00  0.00  1.00  0.00  0.00  0.00  0.00  0.00
  WSL2014                 1.00   0.00  0.00  0.00  1.00  0.00  0.00  0.00  0.00  0.00
  WSL2015                 1.00   0.00  0.00  0.00  1.00  0.00  0.00  0.00  0.02  0.00
  WSL2016                 1.00   0.00  0.00  0.00  1.00  0.00  0.00  0.00  0.04  0.00
  WSL2017                 1.00   0.00  0.00  0.00  1.00  0.00  0.00  0.00  0.04  0.00
  WSL2018                 1.00   0.00  0.00  0.00  0.41  0.59  0.00  0.00  0.06  0.00
  WSL2019                 1.00   0.00  0.00  0.00  0.85  0.15  0.00  0.00  0.11  0.00
  WSL2028                 1.00   0.00  0.00  0.00  1.00  0.00  0.00  0.00  0.06  0.00
  WSL2029                 1.00   0.00  0.00  0.00  0.98  0.02  0.00  0.00  0.00  0.00
  WSL2038                 1.00   0.00  0.00  0.00  1.00  0.00  0.00  0.00  0.01  0.00
  WSL2039                 1.00   0.00  0.00  0.00  0.94  0.06  0.00  0.00  0.01  0.00
  WSL2041                 1.00   0.00  0.00  0.00  1.00  0.00  0.00  0.00  0.15  0.00
  WSL2294                 1.00   0.00  0.00  0.00  1.00  0.00  0.00  0.00  0.00  0.00
  WSL2295                 1.00   0.00  0.00  0.00  1.00  0.00  0.00  0.00  0.00  0.00
  WSL2296                 1.00   0.00  0.00  0.00  0.86  0.14  0.00  0.00  0.40  0.00
  WSL2297                 1.00   0.00  0.00  0.00  1.00  0.00  0.00  0.00  0.00  0.00
  WSL2298                 1.00   0.00  0.00  0.00  0.53  0.47  0.00  0.00  0.00  0.00
  WSL2301                 1.00   0.00  0.00  0.00  1.00  0.00  0.00  0.00  0.09  0.00
  WSL2302                 1.00   0.00  0.00  0.00  1.00  0.00  0.00  0.00  0.00  0.00
  WSL2441                 1.00   0.00  0.00  0.00  1.00  0.00  0.00  0.00  0.00  0.00
  WSL2442                 1.00   0.00  0.00  0.00  1.00  0.00  0.00  0.00  0.10  0.00
  WSL2443                 1.00   0.00  0.00  0.00  1.00  0.00  0.00  0.00  0.27  0.00
  WSL2444                 1.00   0.00  0.00  0.00  0.87  0.13  0.00  0.00  0.16  0.00
  WSL2446                 1.00   0.00  0.00  0.00  0.90  0.10  0.00  0.00  0.13  0.00
  WSL2447                 1.00   0.00  0.00  0.00  1.00  0.00  0.00  0.00  0.00  0.00
  WSL2448                 1.00   0.00  0.00  0.00  1.00  0.00  0.00  0.00  0.01  0.00
  WSL2449                 1.00   0.00  0.00  0.00  1.00  0.00  0.00  0.00  0.04  0.00
  WSL2450                 1.00   0.00  0.00  0.00  1.00  0.00  0.00  0.00  0.29  0.00
  WSL2451                 1.00   0.00  0.00  0.00  1.00  0.00  0.00  0.00  0.00  0.00
  WSL2452                 1.00   0.00  0.00  0.00  1.00  0.00  0.00  0.00  0.35  0.00
  WSL2454                 1.00   0.00  0.00  0.00  1.00  0.00  0.00  0.00  0.04  0.00
  WSL2478                 1.00   0.00  0.00  0.00  1.00  0.00  0.00  0.00  0.00  0.00
  WSL2479                 1.00   0.00  0.00  0.00  1.00  0.00  0.00  0.00  0.34  0.00
  WSL2480                 1.00   0.00  0.00  0.00  1.00  0.00  0.00  0.00  0.00  0.00
  WSL2482                 1.00   0.00  0.00  0.00  1.00  0.00  0.00  0.00  0.33  0.00
  WSL2484                 1.00   0.00  0.00  0.00  0.99  0.01  0.00  0.00  0.32  0.00
  WSL2493                 1.00   0.00  0.00  0.00  1.00  0.00  0.00  0.00  0.05  0.00
  WSL2867                 1.00   0.00  0.00  0.00  0.00  1.00  0.00  0.00  0.18  0.00
  WSL2868                 1.00   0.00  0.00  0.00  0.90  0.10  0.00  0.00  0.46  0.00
  WSL348                  1.00   0.00  0.00  0.00  0.99  0.01  0.00  0.00  0.01  0.00
  WSL175                  1.00   0.00  0.00  0.00  0.95  0.05  0.00  0.00  0.01  0.00
  WSL1467                 1.00   0.00  0.00  0.00  1.00  0.00  0.00  0.00  0.10  0.00
  WSL1473                 1.00   0.00  0.00  0.00  1.00  0.00  0.00  0.00  0.04  0.00
  XRpipe                  1.00   0.00  0.00  0.00  0.96  0.04  0.00  0.00  0.04  0.00
  8                       1.00   0.31  0.00  0.00  0.00  0.68  0.00  0.00  0.07  0.00
  19                      1.00   1.00  0.00  0.00  0.00  0.00  0.00  0.00  0.00  0.00
  17                      1.00   1.00  0.00  0.00  0.00  0.00  0.00  0.00  0.00  0.00
  4                       1.00   1.00  0.00  0.00  0.00  0.00  0.00  0.00  0.00  0.00
  2                       1.00   0.00  0.00  0.00  0.00  1.00  0.00  0.00  0.28  0.00
  
  
  *************************
  Conduit Surcharge Summary
  *************************
  
  ----------------------------------------------------------------------------
                                                           Hours        Hours 
                         --------- Hours Full --------   Above Full   Capacity
  Conduit                Both Ends  Upstream  Dnstream   Normal Flow   Limited
  ----------------------------------------------------------------------------
  WSL49                       0.01      0.01      0.01      2.18         0.01
  WSL1465                     0.12      0.12      0.40      0.01         0.01
  WSL1472                     0.01      0.01      0.01      2.13         0.01
  WSL1475                     0.01      0.01      0.01      2.07         0.01
  WSL1476                     0.01      0.01      1.44      0.01         0.01
  WSL1477                     0.01      0.01      0.01      0.42         0.01
  WSL1491                     0.01      0.01      0.05      0.01         0.01
  WSL1492                     0.04      0.05      0.12      0.01         0.01
  WSL1513                     0.01      0.01      0.01      0.33         0.01
  WSL1515                     0.01      0.01      0.01      1.31         0.01
  WSL2010                     0.64      0.68      0.64      1.25         0.63
  WSL2011                     0.64      0.64      0.95      0.01         0.01
  WSL2012                     0.91      0.95      0.91      1.57         0.91
  WSL2013                     0.66      0.91      0.66      2.24         0.66
  WSL2014                     0.49      0.66      0.49      2.03         0.49
  WSL2015                     0.38      0.49      0.38      1.70         0.38
  WSL2016                     0.23      0.38      0.23      1.39         0.23
  WSL2017                     0.01      0.23      0.01      1.65         0.01
  WSL2028                     0.65      0.65      0.68      0.35         0.33
  WSL2029                     0.01      0.01      0.01      1.75         0.01
  WSL2038                     0.73      0.73      0.78      0.01         0.01
  WSL2039                     0.89      0.89      0.97      0.01         0.01
  WSL2041                     0.77      0.78      0.89      0.01         0.01
  WSL2294                     0.97      1.29      0.97      2.32         0.97
  WSL2295                     0.67      0.97      0.67      2.34         0.67
  WSL2296                     0.44      0.44      1.31      0.01         0.01
  WSL2297                     0.61      0.73      0.61      2.04         0.60
  WSL2298                     0.44      0.67      0.44      2.34         0.44
  WSL2301                     0.61      0.61      0.68      0.01         0.01
  WSL2302                     0.65      0.68      0.65      1.13         0.64
  WSL2441                     1.29      1.31      1.29      2.22         1.29
  WSL2442                     1.69      1.73      1.70      1.91         1.64
  WSL2443                     1.57      1.57      1.73      0.01         0.01
  WSL2444                     1.47      1.47      1.57      0.01         0.01
  WSL2446                     1.37      1.37      1.47      0.01         0.01
  WSL2447                     1.37      1.45      1.37      2.26         1.37
  WSL2448                     1.45      1.45      1.45      1.59         1.21
  WSL2449                     1.45      1.47      1.45      0.39         0.19
  WSL2450                     1.41      1.41      1.47      0.01         0.01
  WSL2451                     1.41      1.45      1.41      1.64         0.72
  WSL2452                     1.36      1.36      1.45      0.01         0.01
  WSL2454                     1.26      1.26      1.36      0.01         0.01
  WSL2478                     1.26      1.26      1.26      0.46         0.01
  WSL2479                     1.25      1.25      1.26      0.01         0.01
  WSL2480                     1.25      1.25      1.25      1.76         1.15
  WSL2482                     1.06      1.06      1.25      0.66         0.65
  WSL2484                     0.67      0.67      1.06      0.01         0.01
  WSL2493                     1.30      1.30      1.31      0.01         0.01
  WSL2868                     0.01      0.01      0.01      0.01         0.01
  WSL348                      3.05      3.05      3.08      0.01         0.01
  WSL175                      3.08      3.08      3.09      2.72         2.74
  WSL1467                     0.01      0.01      0.01      0.20         0.01
  WSL1473                     0.01      0.01      0.01      0.01         0.01
  XRpipe                      3.09      3.09      3.46      0.01         0.01
  
  
  ***************
  Pumping Summary
  ***************
  
  ---------------------------------------------------------------------------------------------------------
                                                  Min       Avg       Max     Total     Power    % Time Off
                        Percent   Number of      Flow      Flow      Flow    Volume     Usage    Pump Curve
  Pump                 Utilized   Start-Ups       MLD       MLD       MLD  10^6 ltr     Kw-hr    Low   High
  ---------------------------------------------------------------------------------------------------------
  XR-Pump-1               95.80           4      0.00      7.57      8.12     1.121      7.01    0.0    0.0
  XR-Pump-3               87.44           4      0.00      7.55      8.12     1.008      5.92    0.0    0.0
  XR-Pump-2               91.63           4      0.00      7.57      8.12     1.065      6.84    0.0    0.0
  XR-Pump-4               95.80           4      0.00      7.57      8.12     1.121      7.01    0.0    0.0
  CC-Pump-1               41.65           2      0.00     13.27     17.28     0.847      5.31    0.0    0.0
  CC-Pump-2               66.61           3      0.00     13.14     17.28     1.276      9.46    0.0    0.0
  JK-Pump-1               33.32           1      0.00     15.71     17.28     0.844      6.63    0.0    0.0
  JK-Pump-2               62.47           3      0.00     14.99     17.28     1.364     12.15    0.0    0.0
  
  
  ***************************
  Link Pollutant Load Summary
  ***************************
  
  ------------------------------------------------------------------------------------------
                                 COD         NH3-N            TN            TP            SS
  Link                            kg            kg            kg            kg            kg
  ------------------------------------------------------------------------------------------
  WSL49                     3225.225         0.000         0.000         0.000         0.000
  WSL1465                    762.372         0.000         0.000         0.000         0.000
  WSL1472                   2819.202         0.000         0.000         0.000         0.000
  WSL1475                   3243.546         0.000         0.000         0.000         0.000
  WSL1476                    408.291         0.000         0.000         0.000         0.000
  WSL1477                    406.062         0.000         0.000         0.000         0.000
  WSL1490                    748.261         0.000         0.000         0.000         0.000
  WSL1491                    758.062         0.000         0.000         0.000         0.000
  WSL1492                    758.682         0.000         0.000         0.000         0.000
  WSL1507                      2.587         0.000         0.000         0.000         0.000
  WSL1508                    243.723         0.000         0.000         0.000         0.000
  WSL1512                    242.923         0.000         0.000         0.000         0.000
  WSL1513                    244.535         0.000         0.000         0.000         0.000
  WSL1515                   2064.120         0.000         0.000         0.000         0.000
  WSL1516                    406.385         0.000         0.000         0.000         0.000
  WSL1518                    406.285         0.000         0.000         0.000         0.000
  WSL1519                    405.795         0.000         0.000         0.000         0.000
  WSL1521                    406.287         0.000         0.000         0.000         0.000
  WSL1543                    405.180         0.000         0.000         0.000         0.000
  WSL1961                    735.825         0.000         0.000         0.000         0.000
  WSL1964                    744.520         0.000         0.000         0.000         0.000
  WSL2010                   1209.705         0.000         0.000         0.000         0.000
  WSL2011                   1213.622         0.000         0.000         0.000         0.000
  WSL2012                   1218.344         0.000         0.000         0.000         0.000
  WSL2013                   1326.873         0.000         0.000         0.000         0.000
  WSL2014                   1679.684         0.000         0.000         0.000         0.000
  WSL2015                   1679.261         0.000         0.000         0.000         0.000
  WSL2016                   1866.894         0.000         0.000         0.000         0.000
  WSL2017                   1867.903         0.000         0.000         0.000         0.000
  WSL2018                   2058.418         0.000         0.000         0.000         0.000
  WSL2019                   2059.147         0.000         0.000         0.000         0.000
  WSL2028                   1205.619         0.000         0.000         0.000         0.000
  WSL2029                   1871.888         0.000         0.000         0.000         0.000
  WSL2038                    191.822         0.000         0.000         0.000         0.000
  WSL2039                    197.563         0.000         0.000         0.000         0.000
  WSL2041                    195.316         0.000         0.000         0.000         0.000
  WSL2294                   1189.758         0.000         0.000         0.000         0.000
  WSL2295                   1190.307         0.000         0.000         0.000         0.000
  WSL2296                   1198.386         0.000         0.000         0.000         0.000
  WSL2297                   1202.542         0.000         0.000         0.000         0.000
  WSL2298                   1193.580         0.000         0.000         0.000         0.000
  WSL2301                   1202.140         0.000         0.000         0.000         0.000
  WSL2302                   1206.633         0.000         0.000         0.000         0.000
  WSL2441                   1188.882         0.000         0.000         0.000         0.000
  WSL2442                    671.433         0.000         0.000         0.000         0.000
  WSL2443                    671.730         0.000         0.000         0.000         0.000
  WSL2444                    668.902         0.000         0.000         0.000         0.000
  WSL2446                    667.486         0.000         0.000         0.000         0.000
  WSL2447                    664.224         0.000         0.000         0.000         0.000
  WSL2448                    660.285         0.000         0.000         0.000         0.000
  WSL2449                    344.311         0.000         0.000         0.000         0.000
  WSL2450                    342.823         0.000         0.000         0.000         0.000
  WSL2451                    342.715         0.000         0.000         0.000         0.000
  WSL2452                    341.844         0.000         0.000         0.000         0.000
  WSL2454                    338.484         0.000         0.000         0.000         0.000
  WSL2478                    336.638         0.000         0.000         0.000         0.000
  WSL2479                    283.009         0.000         0.000         0.000         0.000
  WSL2480                    586.026         0.000         0.000         0.000         0.000
  WSL2482                    582.913         0.000         0.000         0.000         0.000
  WSL2484                    517.515         0.000         0.000         0.000         0.000
  WSL2493                    673.853         0.000         0.000         0.000         0.000
  WSL2867                   2062.889         0.000         0.000         0.000         0.000
  WSL2868                   2067.961         0.000         0.000         0.000         0.000
  WSL348                    1536.095         0.000         0.000         0.000         0.000
  WSL175                    1543.333         0.000         0.000         0.000         0.000
  WSL1467                   2816.967         0.000         0.000         0.000         0.000
  WSL1473                   2820.110         0.000         0.000         0.000         0.000
  XRpipe                    1556.136         0.000         0.000         0.000         0.000
  8                          390.529         0.000         0.000         0.000         0.000
  19                           0.000         0.000         0.000         0.000         0.000
  17                           0.000         0.000         0.000         0.000         0.000
  4                            0.000         0.000         0.000         0.000         0.000
  2                         3259.392         0.000         0.000         0.000         0.000
  XR-Pump-1                  186.563         0.000         0.000         0.000         0.000
  XR-Pump-3                  172.434         0.000         0.000         0.000         0.000
  XR-Pump-2                  177.149         0.000         0.000         0.000         0.000
  XR-Pump-4                  186.563         0.000         0.000         0.000         0.000
  CC-Pump-1                  132.380         0.000         0.000         0.000         0.000
  CC-Pump-2                  186.165         0.000         0.000         0.000         0.000
  JK-Pump-1                  127.986         0.000         0.000         0.000         0.000
  JK-Pump-2                  193.735         0.000         0.000         0.000         0.000
  

  Analysis begun on:  Tue Mar 19 20:20:59 2019
  Analysis ended on:  Tue Mar 19 20:21:00 2019
  Total elapsed time: 00:00:01