
  EPA STORM WATER MANAGEMENT MODEL - VERSION 5.1 (Build 5.2.0.dev1)
  --------------------------------------------------------------

  
  *********************************************************
  NOTE: The summary statistics displayed in this report are
  based on results found at every computational time step,  
  not just on results from each reporting time step.
  *********************************************************
  
  ****************
  Analysis Options
  ****************
  Flow Units ............... MLD
  Process Models:
    Rainfall/Runoff ........ YES
    RDII ................... NO
    Snowmelt ............... NO
    Groundwater ............ NO
    Flow Routing ........... YES
    Ponding Allowed ........ NO
    Water Quality .......... YES
  Infiltration Method ...... GREEN_AMPT
  Flow Routing Method ...... DYNWAVE
  Starting Date ............ 08/28/2015 08:00:00
  Ending Date .............. 08/28/2015 12:00:00
  Antecedent Dry Days ...... 4.0
  Report Time Step ......... 00:01:00
  Wet Time Step ............ 00:01:00
  Dry Time Step ............ 00:01:00
  Routing Time Step ........ 5.00 sec
  Variable Time Step ....... YES
  Maximum Trials ........... 8
  Number of Threads ........ 1
  Head Tolerance ........... 0.001500 m
  
  
  **************************        Volume         Depth
  Runoff Quantity Continuity     hectare-m            mm
  **************************     ---------       -------
  Total Precipitation ......         4.874        17.282
  Evaporation Loss .........         0.000         0.000
  Infiltration Loss ........         2.138         7.582
  Surface Runoff ...........         1.194         4.233
  Final Storage ............         1.545         5.477
  Continuity Error (%) .....        -0.057
  
  
  **************************           COD         NH3-N            TN            TP            SS
  Runoff Quality Continuity             kg            kg            kg            kg            kg
  **************************    ----------    ----------    ----------    ----------    ----------
  Initial Buildup ..........     13074.240         0.000         0.000         0.000         0.000
  Surface Buildup ..........       109.398         0.000         0.000         0.000         0.000
  Wet Deposition ...........         0.000         0.000         0.000         0.000         0.000
  Sweeping Removal .........         0.000         0.000         0.000         0.000         0.000
  Infiltration Loss ........       149.283         0.000         0.000         0.000         0.000
  BMP Removal ..............         0.000         0.000         0.000         0.000         0.000
  Surface Runoff ...........      1875.850         0.000         0.000         0.000         0.000
  Remaining Buildup ........     11156.087         0.000         0.000         0.000         0.000
  Continuity Error (%) .....         0.018         0.000         0.000         0.000         0.000
  
  
  **************************        Volume        Volume
  Flow Routing Continuity        hectare-m      10^6 ltr
  **************************     ---------     ---------
  Dry Weather Inflow .......         0.000         0.000
  Wet Weather Inflow .......         1.190        11.903
  Groundwater Inflow .......         0.000         0.000
  RDII Inflow ..............         0.000         0.000
  External Inflow ..........         0.561         5.611
  External Outflow .........         1.072        10.725
  Flooding Loss ............         0.624         6.237
  Evaporation Loss .........         0.000         0.000
  Exfiltration Loss ........         0.000         0.000
  Initial Stored Volume ....         0.000         0.000
  Final Stored Volume ......         0.099         0.986
  Continuity Error (%) .....        -2.472
  
  
  **************************           COD         NH3-N            TN            TP            SS
  Quality Routing Continuity            kg            kg            kg            kg            kg
  **************************    ----------    ----------    ----------    ----------    ----------
  Dry Weather Inflow .......         0.000         0.000         0.000         0.000         0.000
  Wet Weather Inflow .......      1871.707         0.000         0.000         0.000         0.000
  Groundwater Inflow .......         0.000         0.000         0.000         0.000         0.000
  RDII Inflow ..............         0.000         0.000         0.000         0.000         0.000
  External Inflow ..........       937.008         0.000         0.000         0.000         0.000
  External Outflow .........      1601.798         0.000         0.000         0.000         0.000
  Flooding Loss ............       977.506         0.000         0.000         0.000         0.000
  Exfiltration Loss ........         0.000         0.000         0.000         0.000         0.000
  Mass Reacted .............         0.000         0.000         0.000         0.000         0.000
  Initial Stored Mass ......         0.000         0.000         0.000         0.000         0.000
  Final Stored Mass ........       113.887         0.000         0.000         0.000         0.000
  Continuity Error (%) .....         4.113         0.000         0.000         0.000         0.000
  
  
  *************************
  Highest Continuity Errors
  *************************
  Node WS02003099 (1.26%)
  
  
  ***************************
  Time-Step Critical Elements
  ***************************
  Link WSL2448 (62.91%)
  Link WSL1477 (14.68%)
  Link 8 (8.24%)
  Link XRpipe (1.41%)
  Link WSL2478 (1.08%)
  
  
  ********************************
  Highest Flow Instability Indexes
  ********************************
  Link WSL1477 (90)
  Link WSL1516 (74)
  Link WSL1515 (23)
  Link WSL2867 (17)
  Link WSL1475 (15)
  
  
  *************************
  Routing Time Step Summary
  *************************
  Minimum Time Step           :     0.50 sec
  Average Time Step           :     2.39 sec
  Maximum Time Step           :     5.00 sec
  Percent in Steady State     :    -0.00
  Average Iterations per Step :     3.05
  Percent Not Converging      :    11.65
  
  
  ***************************
  Subcatchment Runoff Summary
  ***************************
  
  --------------------------------------------------------------------------------------------------------
                            Total      Total      Total      Total      Total       Total     Peak  Runoff
                           Precip      Runon       Evap      Infil     Runoff      Runoff   Runoff   Coeff
  Subcatchment                 mm         mm         mm         mm         mm    10^6 ltr      MLD
  --------------------------------------------------------------------------------------------------------
  1                         17.28      18.68       0.00       9.15      16.13        0.20     4.29   0.449
  2                         17.28       0.00       0.00       7.44       5.56        0.19     4.90   0.322
  3                         17.28       0.00       0.00       7.47       5.28        0.27     6.89   0.305
  4                         17.28       0.00       0.00       7.42       5.73        0.15     4.03   0.332
  5                         17.28      13.71       0.00       8.94      13.05        0.22     5.15   0.421
  6                         17.28       0.00       0.00       7.47       5.30        0.26     6.72   0.306
  7                         17.28       0.00       0.00       7.43       4.55        7.28   141.13   0.263
  8                         17.28       0.00       0.00       7.46       5.40        0.23     5.92   0.312
  9                         17.28       5.33       0.00       8.15       7.67        0.29     7.05   0.339
  17                        17.28       0.00       0.00       7.45       5.50        0.20     5.25   0.318
  18                        17.28       0.00       0.00       7.46       5.38        0.23     6.03   0.312
  28                        17.28      17.24       0.00       9.23      13.52        0.36     7.71   0.392
  29                        17.28       7.29       0.00       8.20       8.84        0.21     5.05   0.360
  30                        17.28      21.03       0.00       9.42      18.98        0.18     4.03   0.495
  31                        17.28       0.00       0.00       7.44       5.52        0.20     5.11   0.320
  33                        17.28       0.00       0.00       7.27       6.65        0.06     1.62   0.385
  34                        17.28      11.91       0.00       8.81      11.71        0.24     5.69   0.401
  35                        17.28       0.00       0.00       7.43       5.64        0.17     4.49   0.326
  36                        17.28      10.95       0.00       8.83       9.41        0.56    12.52   0.333
  39                        17.28       0.00       0.00       7.44       5.55        0.19     4.95   0.321
  40                        17.28       2.96       0.00       7.86       6.64        0.26     6.48   0.328
  41                        17.28       0.00       0.00       7.38       5.97        0.12     3.11   0.345
  42                        17.28       0.00       0.00       7.40       5.85        0.13     3.55   0.338
  43                        17.28       0.00       0.00       7.12       7.48        0.03     0.79   0.433
  44                        17.28     156.61       0.00      14.30     131.53        0.49     9.62   0.756
  45                        17.28       0.00       0.00       7.30       6.50        0.07     1.85   0.376
  46                        17.28       9.23       0.00       8.49      10.17        0.22     5.20   0.384
  47                        17.28       0.00       0.00       7.31       6.43        0.07     1.97   0.372
  48                        17.28       4.51       0.00       7.93       8.30        0.13     3.35   0.381
  55                        17.28       6.74       0.00       8.05      10.39        0.09     2.21   0.432
  56                        17.28      10.15       0.00       8.58      10.61        0.23     5.36   0.387
  57                        17.28       0.00       0.00       7.47       5.29        0.26     6.78   0.306
  59                        17.28       0.00       0.00       7.27       6.68        0.06     1.57   0.386
  60                        17.28      14.65       0.00       8.68      16.28        0.08     2.08   0.510
  61                        17.28       0.00       0.00       7.55       4.50        0.81    19.54   0.261
  62                        17.28       0.00       0.00       7.56       4.47        0.85    20.43   0.259
  64                        17.28       0.00       0.00       7.32       6.36        0.08     2.10   0.368
  
  
  ****************************
  Subcatchment Washoff Summary
  ****************************
  
  ------------------------------------------------------------------------------------------
                                 COD         NH3-N            TN            TP            SS
  Subcatchment                    kg            kg            kg            kg            kg
  ------------------------------------------------------------------------------------------
  1                           29.165         0.000         0.000         0.000         0.000
  2                            0.000         0.000         0.000         0.000         0.000
  3                            0.000         0.000         0.000         0.000         0.000
  4                           25.282         0.000         0.000         0.000         0.000
  5                           67.910         0.000         0.000         0.000         0.000
  6                           40.825         0.000         0.000         0.000         0.000
  7                         1035.162         0.000         0.000         0.000         0.000
  8                           36.259         0.000         0.000         0.000         0.000
  9                           67.267         0.000         0.000         0.000         0.000
  17                          32.420         0.000         0.000         0.000         0.000
  18                          36.920         0.000         0.000         0.000         0.000
  28                         133.159         0.000         0.000         0.000         0.000
  29                          62.864         0.000         0.000         0.000         0.000
  30                          54.441         0.000         0.000         0.000         0.000
  31                          31.596         0.000         0.000         0.000         0.000
  33                          10.762         0.000         0.000         0.000         0.000
  34                          72.861         0.000         0.000         0.000         0.000
  35                          27.954         0.000         0.000         0.000         0.000
  36                         164.354         0.000         0.000         0.000         0.000
  39                          30.628         0.000         0.000         0.000         0.000
  40                          52.850         0.000         0.000         0.000         0.000
  41                          19.833         0.000         0.000         0.000         0.000
  42                          22.450         0.000         0.000         0.000         0.000
  43                           5.508         0.000         0.000         0.000         0.000
  44                         148.367         0.000         0.000         0.000         0.000
  45                          12.234         0.000         0.000         0.000         0.000
  46                          64.502         0.000         0.000         0.000         0.000
  47                          12.950         0.000         0.000         0.000         0.000
  48                          31.750         0.000         0.000         0.000         0.000
  55                          24.138         0.000         0.000         0.000         0.000
  56                          69.708         0.000         0.000         0.000         0.000
  57                          41.210         0.000         0.000         0.000         0.000
  59                          10.480         0.000         0.000         0.000         0.000
  60                          26.845         0.000         0.000         0.000         0.000
  61                         111.205         0.000         0.000         0.000         0.000
  62                         115.902         0.000         0.000         0.000         0.000
  64                          13.741         0.000         0.000         0.000         0.000
  ------------------------------------------------------------------------------------------
  System                    2743.501         0.000         0.000         0.000         0.000
  
  
  ******************
  Node Depth Summary
  ******************
  
  ---------------------------------------------------------------------------------
                                 Average  Maximum  Maximum  Time of Max    Reported
                                   Depth    Depth      HGL   Occurrence   Max Depth
  Node                 Type       Meters   Meters   Meters  days hr:min      Meters
  ---------------------------------------------------------------------------------
  WS01000070           JUNCTION     0.00     0.00     0.00     0  00:00        0.00
  WS01000323           JUNCTION     0.00     0.00     0.00     0  00:00        0.00
  WS01000533           JUNCTION     0.00     0.00     6.86     0  00:00        0.00
  WS01005172           JUNCTION     0.00     0.00     0.00     0  00:00        0.00
  WS01005181           JUNCTION     0.00     0.00     0.00     0  00:00        0.00
  WS01009841           JUNCTION     0.00     0.00     0.00     0  00:00        0.00
  WS02000078           JUNCTION     0.00     0.00     0.00     0  00:00        0.00
  WS02000112           JUNCTION     0.00     0.00     0.00     0  00:00        0.00
  WS02000136           JUNCTION     0.00     0.00     0.00     0  00:00        0.00
  WS02001211           JUNCTION     0.44     0.56     5.40     0  03:07        0.56
  WS02001212           JUNCTION     0.39     0.59     5.39     0  03:06        0.57
  WS02001213           JUNCTION     0.49     0.68     5.38     0  03:06        0.68
  WS02003059           JUNCTION     0.47     0.73     5.38     0  03:05        0.70
  WS02003060           JUNCTION     0.54     0.82     5.37     0  03:09        0.81
  WS02003066           JUNCTION     0.23     0.42     5.72     0  03:02        0.40
  WS02003067           JUNCTION     0.39     0.68     6.00     0  03:06        0.67
  WS02003071           JUNCTION     0.59     0.92     5.32     0  03:09        0.92
  WS02003072           JUNCTION     0.50     0.86     5.23     0  03:03        0.81
  WS02003073           JUNCTION     0.57     1.01     5.25     0  03:07        1.00
  WS02003076           JUNCTION     0.52     0.90     5.13     0  03:02        0.86
  WS02003077           JUNCTION     0.08     0.21     5.22     0  03:08        0.15
  WS02003078           JUNCTION     0.05     0.08     6.98     0  03:03        0.08
  WS02003079           JUNCTION     0.15     0.27     7.18     0  03:03        0.26
  WS02003093           JUNCTION     0.03     0.10     7.44     0  03:01        0.10
  WS02003094           JUNCTION     0.13     0.22     7.44     0  03:01        0.22
  WS02003098           JUNCTION     0.08     0.15     7.32     0  03:03        0.15
  WS02003099           JUNCTION     0.17     0.29     7.33     0  03:02        0.29
  WS02003102           JUNCTION     0.15     0.27     7.30     0  03:02        0.27
  WS02003103           JUNCTION     0.17     0.30     7.27     0  03:03        0.30
  WS02003104           JUNCTION     0.17     0.29     7.25     0  03:03        0.29
  WS02003106           JUNCTION     0.17     0.29     7.22     0  03:04        0.29
  WS02004050           JUNCTION     0.36     0.53     4.75     0  03:05        0.52
  WS02004053           JUNCTION     0.00     0.00     0.00     0  00:00        0.00
  WS02004136           JUNCTION     0.17     0.18     6.91     0  01:20        0.18
  WS02004139           JUNCTION     0.36     0.46     5.42     0  03:08        0.46
  WS02004401           JUNCTION     0.41     0.70     6.70     0  03:02        0.70
  WS02004402           JUNCTION     0.42     0.71     6.67     0  03:03        0.71
  WS02004403           JUNCTION     0.41     0.71     6.64     0  03:03        0.71
  WS02004404           JUNCTION     0.49     0.79     6.64     0  03:03        0.79
  WS02004405           JUNCTION     0.49     0.79     6.63     0  03:03        0.79
  WS02004406           JUNCTION     0.47     0.76     6.59     0  03:03        0.76
  WS02004407           JUNCTION     0.44     0.72     6.52     0  03:02        0.72
  WS02004409           JUNCTION     0.43     0.69     6.46     0  03:02        0.69
  WS02004410           JUNCTION     0.41     0.67     6.39     0  03:01        0.66
  WS02004411           JUNCTION     0.38     0.62     6.30     0  03:01        0.62
  WS02004412           JUNCTION     0.33     0.55     6.19     0  03:00        0.55
  WS02004413           JUNCTION     0.35     0.58     6.05     0  03:00        0.57
  WS02004997           JUNCTION     5.61     6.68     8.29     0  03:00        6.68
  WS02005192           JUNCTION     0.21     0.57     8.44     0  02:57        0.56
  WS02005193           JUNCTION     0.23     0.61     8.43     0  02:57        0.60
  WS02005196           JUNCTION     0.22     0.58     8.43     0  02:57        0.58
  WS02006109           JUNCTION     0.46     0.75     7.37     0  03:20        0.75
  WS02006110           JUNCTION     0.42     0.66     7.26     0  03:21        0.66
  WS02006111           JUNCTION     0.24     0.40     6.98     0  02:55        0.40
  WS02006112           JUNCTION     0.43     0.70     6.82     0  03:01        0.70
  WS02006113           JUNCTION     0.36     0.55     7.14     0  02:55        0.55
  WS02006115           JUNCTION     0.39     0.66     6.76     0  03:03        0.66
  WS02006116           JUNCTION     0.42     0.70     6.74     0  03:02        0.70
  WS02006183           JUNCTION     0.00     0.00     0.00     0  00:00        0.00
  WS02006228           JUNCTION     0.48     0.80     7.45     0  03:20        0.79
  WS02006229           JUNCTION     0.45     0.79     7.48     0  03:20        0.79
  WS02006230           JUNCTION     0.46     0.85     7.60     0  03:20        0.84
  WS02006231           JUNCTION     0.39     0.81     7.71     0  03:20        0.81
  WS02006232           JUNCTION     0.36     0.78     7.81     0  03:20        0.78
  WS02006234           JUNCTION     0.34     0.76     7.92     0  03:20        0.76
  WS02006235           JUNCTION     0.39     0.83     8.00     0  03:20        0.83
  WS02006238           JUNCTION     0.39     0.84     8.02     0  03:20        0.84
  WS02006239           JUNCTION     0.40     0.82     8.03     0  03:20        0.82
  WS02006242           JUNCTION     0.39     0.78     8.08     0  02:53        0.77
  WS02006240           JUNCTION     0.35     0.75     8.04     0  03:20        0.74
  WS02006243           JUNCTION     0.32     0.73     8.15     0  02:53        0.71
  WS02006245           JUNCTION     0.32     0.72     8.21     0  02:53        0.70
  WS02006247           JUNCTION     0.34     0.73     8.24     0  02:53        0.72
  WS02006248           JUNCTION     0.29     0.68     8.27     0  02:57        0.68
  WS02006249           JUNCTION     0.32     0.71     8.31     0  02:57        0.71
  WS02006251           JUNCTION     0.31     0.73     8.40     0  02:55        0.73
  WS02006253           JUNCTION     0.23     0.63     8.43     0  02:57        0.63
  WS02618401           JUNCTION     0.00     0.00     0.00     0  00:00        0.00
  WS8802               JUNCTION     0.00     0.00     4.38     0  00:00        0.00
  WSA1649              JUNCTION     0.00     0.00     0.00     0  00:00        0.00
  WSF200               JUNCTION     0.22     0.44     5.54     0  03:00        0.41
  XR-Inflow            JUNCTION     5.47     6.55     8.36     0  02:19        6.55
  WS02004114           JUNCTION     5.58     6.65     8.25     0  02:19        6.65
  outfall-2            OUTFALL      0.00     0.00     7.00     0  00:00        0.00
  outfall-5            OUTFALL      0.01     0.08     7.74     0  02:57        0.07
  outfall-14           OUTFALL      0.00     0.00     7.66     0  00:00        0.00
  outfall-16           OUTFALL      0.00     0.00     8.39     0  00:00        0.00
  12                   OUTFALL      0.35     0.52     0.52     0  03:05        0.51
  XR-storage           STORAGE      6.60     7.72     8.22     0  00:14        7.72
  CC-storage           STORAGE      1.19     5.42     8.60     0  02:36        5.41
  JK-storage           STORAGE      2.00     4.80     7.80     0  02:38        4.80
  
  
  *******************
  Node Inflow Summary
  *******************
  
  -------------------------------------------------------------------------------------------------
                                  Maximum  Maximum                  Lateral       Total        Flow
                                  Lateral    Total  Time of Max      Inflow      Inflow     Balance
                                   Inflow   Inflow   Occurrence      Volume      Volume       Error
  Node                 Type           MLD      MLD  days hr:min    10^6 ltr    10^6 ltr     Percent
  -------------------------------------------------------------------------------------------------
  WS01000070           JUNCTION      0.00     0.00     0  00:00           0           0       0.000 ltr
  WS01000323           JUNCTION      0.00     0.00     0  00:00           0           0       0.000 ltr
  WS01000533           JUNCTION      0.00     0.00     0  00:00           0           0       0.000 ltr
  WS01005172           JUNCTION      0.00     0.00     0  00:00           0           0       0.000 ltr
  WS01005181           JUNCTION      0.00     0.00     0  00:00           0           0       0.000 ltr
  WS01009841           JUNCTION      0.00     0.00     0  00:00           0           0       0.000 ltr
  WS02000078           JUNCTION      0.00     0.00     0  00:00           0           0       0.000 ltr
  WS02000112           JUNCTION      0.00     0.00     0  00:00           0           0       0.000 ltr
  WS02000136           JUNCTION      0.00     0.00     0  00:00           0           0       0.000 ltr
  WS02001211           JUNCTION      0.25    36.54     0  03:09      0.0407        4.77       0.544
  WS02001212           JUNCTION      0.21    37.96     0  03:14      0.0346        4.78       0.303
  WS02001213           JUNCTION      0.30    42.72     0  03:15      0.0489        4.82       0.423
  WS02003059           JUNCTION      0.23    42.74     0  03:12      0.0378        4.83       0.535
  WS02003060           JUNCTION      0.16   141.70     0  03:02      0.0252          10       0.414
  WS02003066           JUNCTION      0.08   117.01     0  03:06      0.0122        5.16       0.198
  WS02003067           JUNCTION      0.26    93.32     0  03:04      0.0395        5.15       0.192
  WS02003071           JUNCTION      0.35   130.77     0  03:08      0.0538          10       0.419
  WS02003072           JUNCTION      0.24   136.90     0  03:09      0.0382          10       0.269
  WS02003073           JUNCTION      0.07   154.15     0  03:08     0.00978        10.6       0.234
  WS02003076           JUNCTION      0.72   171.55     0  03:05        0.12        10.6       0.149
  WS02003077           JUNCTION      0.04    12.11     0  03:03      0.0059       0.557       0.147
  WS02003078           JUNCTION      0.03    13.77     0  03:03     0.00419       0.551      -0.051
  WS02003079           JUNCTION      0.04    11.93     0  03:03     0.00561       0.548       0.291
  WS02003093           JUNCTION      0.02     0.08     0  03:01     0.00306     0.00354       0.641
  WS02003094           JUNCTION      7.10     7.10     0  03:01       0.299       0.302       0.997
  WS02003098           JUNCTION      0.02     6.92     0  03:01     0.00293       0.302       0.620
  WS02003099           JUNCTION      0.07     6.69     0  03:02      0.0109       0.311       1.273
  WS02003102           JUNCTION      5.94    12.11     0  03:01       0.233        0.54       0.612
  WS02003103           JUNCTION      0.02    11.94     0  03:02     0.00239       0.539       0.447
  WS02003104           JUNCTION      0.02    11.89     0  03:02     0.00302        0.54       0.377
  WS02003106           JUNCTION      0.05    11.90     0  03:03     0.00727       0.545       0.455
  WS02004050           JUNCTION      0.72   189.60     0  03:03       0.119        10.7       0.612
  WS02004053           JUNCTION      0.00     0.00     0  00:00           0           0       0.000 ltr
  WS02004136           JUNCTION      0.44    32.92     0  01:20      0.0703        4.69       0.062
  WS02004139           JUNCTION      0.38    33.31     0  01:20      0.0619        4.75       0.376
  WS02004401           JUNCTION      0.05    67.19     0  03:22     0.00897        3.98       0.252
  WS02004402           JUNCTION      0.22    67.39     0  03:22      0.0335           4       0.232
  WS02004403           JUNCTION      0.23    67.60     0  03:03      0.0349        4.03       0.200
  WS02004404           JUNCTION      0.24    68.02     0  03:04      0.0365        4.05       0.180
  WS02004405           JUNCTION      4.10    71.31     0  03:02       0.164        4.21       0.258
  WS02004406           JUNCTION      7.83    78.72     0  03:02       0.376        4.58       0.363
  WS02004407           JUNCTION      0.11    78.87     0  03:03      0.0171        4.58       0.323
  WS02004409           JUNCTION      5.33    83.97     0  03:03       0.256        4.82       0.271
  WS02004410           JUNCTION      0.15    84.24     0  03:02      0.0226        4.83       0.271
  WS02004411           JUNCTION      0.25    84.66     0  03:02      0.0379        4.85       0.236
  WS02004412           JUNCTION      6.80    90.97     0  03:01       0.276        5.12       0.187
  WS02004413           JUNCTION      0.11    91.09     0  03:02      0.0172        5.12       0.180
  WS02004997           JUNCTION      0.42    63.57     0  03:00      0.0693        7.33       0.542
  WS02005192           JUNCTION      6.87     6.87     0  03:01       0.282       0.282       0.156
  WS02005193           JUNCTION      0.09     7.13     0  03:01      0.0146        0.32       0.302
  WS02005196           JUNCTION      0.12     7.05     0  03:01       0.019       0.303       0.333
  WS02006109           JUNCTION      0.08    63.98     0  03:20      0.0135        3.62       0.340
  WS02006110           JUNCTION      0.08    64.02     0  03:21      0.0132        3.62       0.312
  WS02006111           JUNCTION      0.24    67.15     0  03:01      0.0366        3.93       0.108
  WS02006112           JUNCTION      0.18    67.31     0  03:01      0.0273        3.95       0.275
  WS02006113           JUNCTION      7.04    66.96     0  03:01       0.295         3.9       0.218
  WS02006115           JUNCTION      0.08    67.31     0  03:01      0.0134        3.95       0.276
  WS02006116           JUNCTION      0.24    67.32     0  03:01       0.036        3.98       0.265
  WS02006183           JUNCTION      0.00     0.00     0  00:00           0           0       0.000 ltr
  WS02006228           JUNCTION      9.77    63.90     0  03:20       0.514        3.61       0.254
  WS02006229           JUNCTION      0.13    55.61     0  03:20        0.02         3.1       0.247
  WS02006230           JUNCTION      0.07    55.60     0  03:20      0.0116        3.09       0.253
  WS02006231           JUNCTION      0.13    55.54     0  03:20      0.0205        3.09       0.152
  WS02006232           JUNCTION      4.97    55.42     0  03:20       0.201        3.07       0.151
  WS02006234           JUNCTION      0.14    53.58     0  03:20      0.0216        2.87       0.153
  WS02006235           JUNCTION      0.14    53.44     0  03:20      0.0223        2.85       0.097
  WS02006238           JUNCTION      0.15    53.35     0  03:20      0.0235        2.84       0.138
  WS02006239           JUNCTION      0.11    44.83     0  03:06      0.0174        1.89       0.285
  WS02006242           JUNCTION      0.08    44.58     0  03:06      0.0129        1.87       0.249
  WS02006240           JUNCTION      0.06    44.65     0  03:06     0.00992        1.88       0.197
  WS02006243           JUNCTION      0.17    44.49     0  03:02      0.0269        1.86       0.125
  WS02006245           JUNCTION      0.07    44.31     0  03:01      0.0113        1.84       0.116
  WS02006247           JUNCTION      4.43    44.23     0  03:01        0.22        1.83       0.119
  WS02006248           JUNCTION      0.12    44.41     0  03:01      0.0192        1.65       0.058
  WS02006249           JUNCTION      0.19    44.25     0  03:01      0.0286        1.63       0.114
  WS02006251           JUNCTION      2.27    44.06     0  03:01      0.0958         1.6       0.089
  WS02006253           JUNCTION      0.11    41.83     0  03:01      0.0173        1.51       0.028
  WS02618401           JUNCTION      0.00     0.00     0  00:00           0           0       0.000 ltr
  WS8802               JUNCTION      0.00     0.00     0  00:00           0           0       0.000 ltr
  WSA1649              JUNCTION      0.00     0.00     0  00:00           0           0       0.000 ltr
  WSF200               JUNCTION      0.14   107.93     0  03:05      0.0216        5.17      -0.012
  XR-Inflow            JUNCTION    158.69   158.69     0  03:01        10.6        10.6       0.220
  WS02004114           JUNCTION      0.57    64.10     0  02:58      0.0916        7.39       0.348
  outfall-2            OUTFALL       0.00     0.00     0  00:00           0           0       0.000 ltr
  outfall-5            OUTFALL       0.00     6.14     0  02:57           0      0.0403       0.000
  outfall-14           OUTFALL       0.00     0.00     0  00:00           0           0       0.000 ltr
  outfall-16           OUTFALL       0.00     0.00     0  00:00           0           0       0.000 ltr
  12                   OUTFALL       0.00   147.62     0  03:05           0        10.7       0.000
  XR-storage           STORAGE       0.00    64.10     0  02:58           0        7.36       0.020
  CC-storage           STORAGE      21.00    21.00     0  03:01         1.1         1.1     -17.075
  JK-storage           STORAGE      21.32    21.32     0  03:01        1.02        1.02     -13.006
  
  
  **********************
  Node Surcharge Summary
  **********************
  
  Surcharging occurs when water rises above the top of the highest conduit.
  ---------------------------------------------------------------------
                                               Max. Height   Min. Depth
                                   Hours       Above Crown    Below Rim
  Node                 Type      Surcharged         Meters       Meters
  ---------------------------------------------------------------------
  WS01000070           JUNCTION        4.00          0.000        0.000
  WS01000323           JUNCTION        4.00          0.000        0.000
  WS01000533           JUNCTION        4.00          0.000        2.147
  WS01005172           JUNCTION        4.00          0.000        0.000
  WS01005181           JUNCTION        4.00          0.000        0.000
  WS01009841           JUNCTION        4.00          0.000        0.000
  WS02000078           JUNCTION        4.00          0.000        0.000
  WS02000112           JUNCTION        4.00          0.000        0.000
  WS02000136           JUNCTION        4.00          0.000        0.000
  WS02004053           JUNCTION        4.00          0.000        0.000
  WS02004997           JUNCTION        3.36          5.784        0.216
  WS02005193           JUNCTION        0.04          0.009        2.608
  WS02006183           JUNCTION        4.00          0.000        0.000
  WS02006231           JUNCTION        0.52          0.111        1.432
  WS02006232           JUNCTION        0.22          0.082        1.407
  WS02006234           JUNCTION        0.13          0.063        1.194
  WS02006235           JUNCTION        0.20          0.129        1.165
  WS02006238           JUNCTION        0.22          0.142        1.292
  WS02006239           JUNCTION        0.28          0.119        1.210
  WS02006242           JUNCTION        0.43          0.080        0.769
  WS02006240           JUNCTION        0.17          0.047        1.356
  WS02006243           JUNCTION        0.08          0.027        0.753
  WS02006245           JUNCTION        0.01          0.016        0.839
  WS02006247           JUNCTION        0.18          0.029        0.731
  WS02006249           JUNCTION        0.05          0.009        0.379
  WS02006251           JUNCTION        0.14          0.031        1.479
  WS02618401           JUNCTION        4.00          0.000        0.000
  WS8802               JUNCTION        4.00          0.000        4.942
  WSA1649              JUNCTION        4.00          0.000        0.000
  XR-Inflow            JUNCTION        3.33          5.650        0.000
  WS02004114           JUNCTION        3.36          5.748        0.767
  
  
  *********************
  Node Flooding Summary
  *********************
  
  Flooding refers to all water that overflows a node, whether it ponds or not.
  --------------------------------------------------------------------------
                                                             Total   Maximum
                                 Maximum   Time of Max       Flood    Ponded
                        Hours       Rate    Occurrence      Volume     Depth
  Node                 Flooded       MLD   days hr:min    10^6 ltr    Meters
  --------------------------------------------------------------------------
  XR-Inflow               1.68     95.52      0  03:01       3.318     0.000
  XR-storage              2.37     31.62      0  02:58       2.668     0.000
  JK-storage              0.52     21.32      0  03:01       0.251     0.000
  
  
  **********************
  Storage Volume Summary
  **********************
  
  --------------------------------------------------------------------------------------------------
                         Average     Avg  Evap Exfil       Maximum     Max    Time of Max    Maximum
                          Volume    Pcnt  Pcnt  Pcnt        Volume    Pcnt     Occurrence    Outflow
  Storage Unit           1000 m3    Full  Loss  Loss       1000 m3    Full    days hr:min        MLD
  --------------------------------------------------------------------------------------------------
  XR-storage               0.054      85     0     0         0.063     100       0  00:14      32.48
  CC-storage               0.034      21     0     0         0.153      96       0  02:36      34.56
  JK-storage               0.057      42     0     0         0.136     100       0  02:38      34.56
  
  
  ***********************
  Outfall Loading Summary
  ***********************
  
  ---------------------------------------------------------------------------------------------------------------------------------
                         Flow       Avg       Max       Total         Total         Total         Total         Total         Total
                         Freq      Flow      Flow      Volume           COD         NH3-N            TN            TP            SS
  Outfall Node           Pcnt       MLD       MLD    10^6 ltr            kg            kg            kg            kg            kg
  ---------------------------------------------------------------------------------------------------------------------------------
  outfall-2              0.00      0.00      0.00       0.000         0.000         0.000         0.000         0.000         0.000
  outfall-5             16.39      3.96      6.14       0.040         3.290         0.000         0.000         0.000         0.000
  outfall-14             0.00      0.00      0.00       0.000         0.000         0.000         0.000         0.000         0.000
  outfall-16             0.00      0.00      0.00       0.000         0.000         0.000         0.000         0.000         0.000
  12                    99.98     78.90    147.62      10.684      1598.682         0.000         0.000         0.000         0.000
  ---------------------------------------------------------------------------------------------------------------------------------
  System                23.27     82.86    150.19      10.725      1601.972         0.000         0.000         0.000         0.000
  
  
  ********************
  Link Flow Summary
  ********************
  
  -----------------------------------------------------------------------------
                                 Maximum  Time of Max   Maximum    Max/    Max/
                                  |Flow|   Occurrence   |Veloc|    Full    Full
  Link                 Type          MLD  days hr:min     m/sec    Flow   Depth
  -----------------------------------------------------------------------------
  WSL49                CONDUIT    170.83     0  03:05      2.62    2.12    0.76
  WSL1465              CONDUIT     47.64     0  03:11      1.46    0.43    0.75
  WSL1472              CONDUIT    136.69     0  03:09      2.01    1.56    0.72
  WSL1475              CONDUIT    188.89     0  03:03      3.25    2.02    0.48
  WSL1476              CONDUIT     22.75     0  03:08      0.85    0.11    0.63
  WSL1477              CONDUIT     13.75     0  03:03      2.36    0.54    0.29
  WSL1490              CONDUIT     37.75     0  03:14      1.35    0.61    0.57
  WSL1491              CONDUIT     42.44     0  03:15      1.32    0.25    0.63
  WSL1492              CONDUIT     42.52     0  03:12      1.29    0.66    0.70
  WSL1507              CONDUIT      0.18     0  03:02      0.11    0.00    0.20
  WSL1508              CONDUIT      6.90     0  03:01      0.92    0.19    0.23
  WSL1512              CONDUIT      6.64     0  03:02      0.61    0.05    0.22
  WSL1513              CONDUIT      6.80     0  03:04      0.50    0.40    0.35
  WSL1515              CONDUIT    116.94     0  03:06      2.89    1.14    0.43
  WSL1516              CONDUIT     12.08     0  03:03      4.06    0.04    0.24
  WSL1518              CONDUIT     11.93     0  03:02      0.86    0.23    0.36
  WSL1519              CONDUIT     11.87     0  03:03      0.85    0.29    0.36
  WSL1521              CONDUIT     11.91     0  03:03      0.91    0.34    0.34
  WSL1543              CONDUIT     11.87     0  03:02      0.82    0.37    0.37
  WSL1961              CONDUIT     32.93     0  00:20      2.24    0.07    0.32
  WSL1964              CONDUIT     36.31     0  03:09      1.19    0.20    0.42
  WSL2010              CONDUIT     67.41     0  03:03      1.37    0.86    0.71
  WSL2011              CONDUIT     67.82     0  03:04      1.30    0.44    0.75
  WSL2012              CONDUIT     68.06     0  03:04      1.23    1.04    0.79
  WSL2013              CONDUIT     71.28     0  03:04      1.29    1.77    0.77
  WSL2014              CONDUIT     78.77     0  03:03      1.48    1.26    0.74
  WSL2015              CONDUIT     79.10     0  03:03      1.56    1.06    0.71
  WSL2016              CONDUIT     84.12     0  03:02      1.73    0.97    0.68
  WSL2017              CONDUIT     84.46     0  03:02      1.87    1.03    0.64
  WSL2018              CONDUIT     90.99     0  03:02      2.37    0.54    0.57
  WSL2019              CONDUIT     93.11     0  03:04      2.27    0.55    0.63
  WSL2028              CONDUIT     67.21     0  03:22      1.38    0.72    0.71
  WSL2029              CONDUIT     84.84     0  03:03      2.12    1.07    0.58
  WSL2038              CONDUIT      6.95     0  03:01      0.61    0.35    0.95
  WSL2039              CONDUIT      7.18     0  03:01      0.91    0.37    1.00
  WSL2041              CONDUIT      7.05     0  03:01      0.68    0.35    0.98
  WSL2294              CONDUIT     63.94     0  03:21      1.57    2.15    0.88
  WSL2295              CONDUIT     64.03     0  03:21      1.81    2.88    0.76
  WSL2296              CONDUIT     67.17     0  03:01      2.15    0.38    0.68
  WSL2297              CONDUIT     67.23     0  03:01      1.41    1.29    0.68
  WSL2298              CONDUIT     66.95     0  03:01      2.51    3.08    0.59
  WSL2301              CONDUIT     67.12     0  03:01      1.43    0.62    0.68
  WSL2302              CONDUIT     67.14     0  03:22      1.38    0.82    0.70
  WSL2441              CONDUIT     63.90     0  03:20      1.49    1.64    0.97
  WSL2442              CONDUIT     55.50     0  03:20      1.67    1.42    1.00
  WSL2443              CONDUIT     55.54     0  03:20      1.67    0.87    1.00
  WSL2444              CONDUIT     55.43     0  03:20      1.78    0.88    1.00
  WSL2446              CONDUIT     53.60     0  03:20      1.81    0.92    1.00
  WSL2447              CONDUIT     53.46     0  03:20      1.74    2.75    1.00
  WSL2448              CONDUIT     53.32     0  03:20      1.64    1.50    1.00
  WSL2449              CONDUIT     44.89     0  03:06      1.41    1.57    1.00
  WSL2450              CONDUIT     44.73     0  03:06      1.39    0.93    1.00
  WSL2451              CONDUIT     44.60     0  03:06      1.36    2.91    1.00
  WSL2452              CONDUIT     44.50     0  03:06      1.35    0.85    1.00
  WSL2454              CONDUIT     44.35     0  03:02      1.42    1.04    1.00
  WSL2478              CONDUIT     44.25     0  03:01      1.40    1.56    1.00
  WSL2479              CONDUIT     40.35     0  03:05      1.34    0.77    0.98
  WSL2480              CONDUIT     44.30     0  03:01      1.38    2.05    0.98
  WSL2482              CONDUIT     44.10     0  03:01      1.35    1.15    1.00
  WSL2484              CONDUIT     41.89     0  03:01      1.47    0.59    0.95
  WSL2493              CONDUIT     55.55     0  03:20      1.28    0.93    0.99
  WSL2867              CONDUIT    107.81     0  03:05      3.99    0.22    0.34
  WSL2868              CONDUIT    102.72     0  03:00      2.21    0.20    0.49
  WSL348               CONDUIT     63.16     0  03:00      1.88    0.58    1.00
  WSL175               CONDUIT     63.56     0  03:00      2.32    2.14    1.00
  WSL1467              CONDUIT    130.47     0  03:08      1.89    0.69    0.71
  WSL1473              CONDUIT    142.78     0  03:08      2.13    0.59    0.75
  XRpipe               CONDUIT     64.10     0  02:58      8.37    0.16    1.00
  8                    CONDUIT      6.14     0  02:57      4.20    0.08    0.19
  19                   CONDUIT      0.00     0  00:00      0.00    0.00    0.00
  17                   CONDUIT      0.00     0  00:00      0.00    0.00    0.00
  4                    CONDUIT      0.00     0  00:00      0.00    0.00    0.00
  2                    CONDUIT    147.62     0  03:05      4.14    0.53    0.52
  XR-Pump-1            PUMP         8.12     0  00:20              1.00
  XR-Pump-3            PUMP         8.12     0  00:20              1.00
  XR-Pump-2            PUMP         8.12     0  00:20              1.00
  XR-Pump-4            PUMP         8.12     0  00:20              1.00
  CC-Pump-1            PUMP        17.28     0  02:50              1.00
  CC-Pump-2            PUMP        17.28     0  01:40              1.00
  JK-Pump-1            PUMP        17.28     0  03:20              1.00
  JK-Pump-2            PUMP        17.28     0  01:50              1.00
  
  
  ***************************
  Flow Classification Summary
  ***************************
  
  -------------------------------------------------------------------------------------
                      Adjusted    ---------- Fraction of Time in Flow Class ---------- 
                       /Actual         Up    Down  Sub   Sup   Up    Down  Norm  Inlet 
  Conduit               Length    Dry  Dry   Dry   Crit  Crit  Crit  Crit  Ltd   Ctrl  
  -------------------------------------------------------------------------------------
  WSL49                   1.00   0.00  0.00  0.00  1.00  0.00  0.00  0.00  0.00  0.00
  WSL1465                 1.00   0.00  0.00  0.00  1.00  0.00  0.00  0.00  0.05  0.00
  WSL1472                 1.00   0.00  0.00  0.00  1.00  0.00  0.00  0.00  0.00  0.00
  WSL1475                 1.00   0.00  0.00  0.00  0.19  0.81  0.00  0.00  0.01  0.00
  WSL1476                 1.00   0.00  0.00  0.00  1.00  0.00  0.00  0.00  0.99  0.00
  WSL1477                 1.00   0.00  0.00  0.00  0.00  1.00  0.00  0.00  0.39  0.00
  WSL1490                 1.00   0.00  0.00  0.00  1.00  0.00  0.00  0.00  0.01  0.00
  WSL1491                 1.00   0.00  0.00  0.00  1.00  0.00  0.00  0.00  0.11  0.00
  WSL1492                 1.00   0.00  0.00  0.00  1.00  0.00  0.00  0.00  0.01  0.00
  WSL1507                 1.00   0.00  0.00  0.00  1.00  0.00  0.00  0.00  0.59  0.00
  WSL1508                 1.00   0.00  0.00  0.00  1.00  0.00  0.00  0.00  0.00  0.00
  WSL1512                 1.00   0.00  0.00  0.00  1.00  0.00  0.00  0.00  0.97  0.00
  WSL1513                 1.00   0.00  0.00  0.00  1.00  0.00  0.00  0.00  0.00  0.00
  WSL1515                 1.00   0.00  0.00  0.00  0.13  0.87  0.00  0.00  0.05  0.00
  WSL1516                 1.00   0.00  0.00  0.00  0.00  1.00  0.00  0.00  1.00  0.00
  WSL1518                 1.00   0.00  0.00  0.00  1.00  0.00  0.00  0.00  0.50  0.00
  WSL1519                 1.00   0.00  0.00  0.00  1.00  0.00  0.00  0.00  0.39  0.00
  WSL1521                 1.00   0.00  0.00  0.00  1.00  0.00  0.00  0.00  0.02  0.00
  WSL1543                 1.00   0.00  0.00  0.00  1.00  0.00  0.00  0.00  0.02  0.00
  WSL1961                 1.00   0.00  0.00  0.00  0.04  0.96  0.00  0.00  1.00  0.00
  WSL1964                 1.00   0.00  0.00  0.00  1.00  0.00  0.00  0.00  0.09  0.00
  WSL2010                 1.00   0.00  0.00  0.00  1.00  0.00  0.00  0.00  0.00  0.00
  WSL2011                 1.00   0.00  0.00  0.00  1.00  0.00  0.00  0.00  0.18  0.00
  WSL2012                 1.00   0.00  0.00  0.00  1.00  0.00  0.00  0.00  0.00  0.00
  WSL2013                 1.00   0.00  0.00  0.00  1.00  0.00  0.00  0.00  0.00  0.00
  WSL2014                 1.00   0.00  0.00  0.00  1.00  0.00  0.00  0.00  0.00  0.00
  WSL2015                 1.00   0.00  0.00  0.00  1.00  0.00  0.00  0.00  0.02  0.00
  WSL2016                 1.00   0.00  0.00  0.00  1.00  0.00  0.00  0.00  0.04  0.00
  WSL2017                 1.00   0.00  0.00  0.00  1.00  0.00  0.00  0.00  0.04  0.00
  WSL2018                 1.00   0.00  0.00  0.00  0.01  0.99  0.00  0.00  0.12  0.00
  WSL2019                 1.00   0.00  0.00  0.00  0.56  0.44  0.00  0.00  0.11  0.00
  WSL2028                 1.00   0.00  0.00  0.00  1.00  0.00  0.00  0.00  0.06  0.00
  WSL2029                 1.00   0.00  0.00  0.00  0.64  0.36  0.00  0.00  0.00  0.00
  WSL2038                 1.00   0.00  0.00  0.00  1.00  0.00  0.00  0.00  0.01  0.00
  WSL2039                 1.00   0.00  0.00  0.00  0.95  0.05  0.00  0.00  0.02  0.00
  WSL2041                 1.00   0.00  0.00  0.00  1.00  0.00  0.00  0.00  0.20  0.00
  WSL2294                 1.00   0.00  0.00  0.00  1.00  0.00  0.00  0.00  0.00  0.00
  WSL2295                 1.00   0.00  0.00  0.00  1.00  0.00  0.00  0.00  0.00  0.00
  WSL2296                 1.00   0.00  0.00  0.00  0.43  0.57  0.00  0.00  0.62  0.00
  WSL2297                 1.00   0.00  0.00  0.00  1.00  0.00  0.00  0.00  0.00  0.00
  WSL2298                 1.00   0.00  0.00  0.00  0.04  0.96  0.00  0.00  0.00  0.00
  WSL2301                 1.00   0.00  0.00  0.00  1.00  0.00  0.00  0.00  0.09  0.00
  WSL2302                 1.00   0.00  0.00  0.00  1.00  0.00  0.00  0.00  0.01  0.00
  WSL2441                 1.00   0.00  0.00  0.00  1.00  0.00  0.00  0.00  0.01  0.00
  WSL2442                 1.00   0.00  0.00  0.00  1.00  0.00  0.00  0.00  0.12  0.00
  WSL2443                 1.00   0.00  0.00  0.00  1.00  0.00  0.00  0.00  0.36  0.00
  WSL2444                 1.00   0.00  0.00  0.00  0.39  0.61  0.00  0.00  0.20  0.00
  WSL2446                 1.00   0.00  0.00  0.00  0.48  0.52  0.00  0.00  0.30  0.00
  WSL2447                 1.00   0.00  0.00  0.00  1.00  0.00  0.00  0.00  0.00  0.00
  WSL2448                 1.00   0.00  0.00  0.00  1.00  0.00  0.00  0.00  0.01  0.00
  WSL2449                 1.00   0.00  0.00  0.00  1.00  0.00  0.00  0.00  0.04  0.00
  WSL2450                 1.00   0.00  0.00  0.00  1.00  0.00  0.00  0.00  0.33  0.00
  WSL2451                 1.00   0.00  0.00  0.00  1.00  0.00  0.00  0.00  0.00  0.00
  WSL2452                 1.00   0.00  0.00  0.00  1.00  0.00  0.00  0.00  0.55  0.00
  WSL2454                 1.00   0.00  0.00  0.00  1.00  0.00  0.00  0.00  0.05  0.00
  WSL2478                 1.00   0.00  0.00  0.00  1.00  0.00  0.00  0.00  0.00  0.00
  WSL2479                 1.00   0.00  0.00  0.00  1.00  0.00  0.00  0.00  0.50  0.00
  WSL2480                 1.00   0.00  0.00  0.00  1.00  0.00  0.00  0.00  0.00  0.00
  WSL2482                 1.00   0.00  0.00  0.00  1.00  0.00  0.00  0.00  0.52  0.00
  WSL2484                 1.00   0.00  0.00  0.00  0.99  0.01  0.00  0.00  0.55  0.00
  WSL2493                 1.00   0.00  0.00  0.00  1.00  0.00  0.00  0.00  0.05  0.00
  WSL2867                 1.00   0.00  0.00  0.00  0.00  1.00  0.00  0.00  0.23  0.00
  WSL2868                 1.00   0.00  0.00  0.00  0.90  0.10  0.00  0.00  0.80  0.00
  WSL348                  1.00   0.00  0.00  0.00  0.98  0.02  0.00  0.00  0.01  0.00
  WSL175                  1.00   0.00  0.00  0.00  0.94  0.06  0.00  0.00  0.00  0.00
  WSL1467                 1.00   0.00  0.00  0.00  1.00  0.00  0.00  0.00  0.13  0.00
  WSL1473                 1.00   0.00  0.00  0.00  1.00  0.00  0.00  0.00  0.07  0.00
  XRpipe                  1.00   0.00  0.00  0.00  0.96  0.04  0.00  0.00  0.03  0.00
  8                       1.00   0.84  0.00  0.00  0.00  0.16  0.00  0.00  0.02  0.00
  19                      1.00   1.00  0.00  0.00  0.00  0.00  0.00  0.00  0.00  0.00
  17                      1.00   1.00  0.00  0.00  0.00  0.00  0.00  0.00  0.00  0.00
  4                       1.00   1.00  0.00  0.00  0.00  0.00  0.00  0.00  0.00  0.00
  2                       1.00   0.00  0.00  0.00  0.00  1.00  0.00  0.00  0.22  0.00
  
  
  *************************
  Conduit Surcharge Summary
  *************************
  
  ----------------------------------------------------------------------------
                                                           Hours        Hours 
                         --------- Hours Full --------   Above Full   Capacity
  Conduit                Both Ends  Upstream  Dnstream   Normal Flow   Limited
  ----------------------------------------------------------------------------
  WSL49                       0.01      0.01      0.01      1.08         0.01
  WSL1472                     0.01      0.01      0.01      0.85         0.01
  WSL1475                     0.01      0.01      0.01      0.84         0.01
  WSL1476                     0.01      0.01      0.16      0.01         0.01
  WSL1515                     0.01      0.01      0.01      0.04         0.01
  WSL2012                     0.01      0.01      0.01      0.37         0.01
  WSL2013                     0.01      0.01      0.01      0.86         0.01
  WSL2014                     0.01      0.01      0.01      0.69         0.01
  WSL2015                     0.01      0.01      0.01      0.23         0.01
  WSL2017                     0.01      0.01      0.01      0.10         0.01
  WSL2029                     0.01      0.01      0.01      0.22         0.01
  WSL2039                     0.04      0.04      0.12      0.01         0.01
  WSL2041                     0.01      0.01      0.04      0.01         0.01
  WSL2294                     0.01      0.01      0.01      0.94         0.01
  WSL2295                     0.01      0.01      0.01      1.47         0.01
  WSL2297                     0.01      0.01      0.01      0.73         0.01
  WSL2298                     0.01      0.01      0.01      1.85         0.01
  WSL2441                     0.01      0.01      0.01      0.81         0.01
  WSL2442                     0.64      0.67      0.64      0.75         0.64
  WSL2443                     0.52      0.52      0.67      0.01         0.01
  WSL2444                     0.22      0.22      0.52      0.01         0.01
  WSL2446                     0.13      0.13      0.22      0.01         0.01
  WSL2447                     0.13      0.20      0.13      1.18         0.13
  WSL2448                     0.20      0.22      0.20      0.76         0.20
  WSL2449                     0.22      0.28      0.22      0.51         0.06
  WSL2450                     0.17      0.17      0.28      0.01         0.01
  WSL2451                     0.17      0.43      0.17      0.96         0.16
  WSL2452                     0.08      0.08      0.43      0.01         0.01
  WSL2454                     0.01      0.01      0.08      0.17         0.01
  WSL2478                     0.01      0.18      0.01      0.54         0.01
  WSL2479                     0.01      0.01      0.18      0.01         0.01
  WSL2480                     0.01      0.05      0.01      0.61         0.01
  WSL2482                     0.05      0.14      0.05      0.29         0.05
  WSL2484                     0.01      0.01      0.14      0.01         0.01
  WSL348                      3.33      3.33      3.35      0.01         0.01
  WSL175                      3.35      3.35      3.36      2.49         2.65
  XRpipe                      3.36      3.36      3.72      0.01         0.01
  
  
  ***************
  Pumping Summary
  ***************
  
  ---------------------------------------------------------------------------------------------------------
                                                  Min       Avg       Max     Total     Power    % Time Off
                        Percent   Number of      Flow      Flow      Flow    Volume     Usage    Pump Curve
  Pump                 Utilized   Start-Ups       MLD       MLD       MLD  10^6 ltr     Kw-hr    Low   High
  ---------------------------------------------------------------------------------------------------------
  XR-Pump-1               91.64           2      0.00      7.82      8.12     1.156      5.65    0.0    0.0
  XR-Pump-3               91.64           2      0.00      7.82      8.12     1.156      5.65    0.0    0.0
  XR-Pump-2               91.64           2      0.00      7.82      8.12     1.156      5.65    0.0    0.0
  XR-Pump-4               91.64           2      0.00      7.82      8.12     1.156      5.65    0.0    0.0
  CC-Pump-1               16.68           1      0.00     14.01     17.28     0.353      4.21    0.0    0.0
  CC-Pump-2               54.16           3      0.00     10.86     17.28     0.827      8.62    0.0    0.0
  JK-Pump-1               20.83           1      0.00      7.73     17.28     0.270      2.58    0.0    0.0
  JK-Pump-2               54.14           4      0.00      7.58     17.28     0.657      5.44    0.0    0.0
  
  
  ***************************
  Link Pollutant Load Summary
  ***************************
  
  ------------------------------------------------------------------------------------------
                                 COD         NH3-N            TN            TP            SS
  Link                            kg            kg            kg            kg            kg
  ------------------------------------------------------------------------------------------
  WSL49                     1567.327         0.000         0.000         0.000         0.000
  WSL1465                    676.267         0.000         0.000         0.000         0.000
  WSL1472                   1455.192         0.000         0.000         0.000         0.000
  WSL1475                   1585.511         0.000         0.000         0.000         0.000
  WSL1476                    111.126         0.000         0.000         0.000         0.000
  WSL1477                    109.250         0.000         0.000         0.000         0.000
  WSL1490                    664.184         0.000         0.000         0.000         0.000
  WSL1491                    667.544         0.000         0.000         0.000         0.000
  WSL1492                    673.804         0.000         0.000         0.000         0.000
  WSL1507                      0.851         0.000         0.000         0.000         0.000
  WSL1508                     69.019         0.000         0.000         0.000         0.000
  WSL1512                     69.271         0.000         0.000         0.000         0.000
  WSL1513                     70.493         0.000         0.000         0.000         0.000
  WSL1515                    771.729         0.000         0.000         0.000         0.000
  WSL1516                    109.985         0.000         0.000         0.000         0.000
  WSL1518                    107.097         0.000         0.000         0.000         0.000
  WSL1519                    107.519         0.000         0.000         0.000         0.000
  WSL1521                    108.456         0.000         0.000         0.000         0.000
  WSL1543                    107.252         0.000         0.000         0.000         0.000
  WSL1961                    652.282         0.000         0.000         0.000         0.000
  WSL1964                    660.797         0.000         0.000         0.000         0.000
  WSL2010                    472.364         0.000         0.000         0.000         0.000
  WSL2011                    477.270         0.000         0.000         0.000         0.000
  WSL2012                    482.517         0.000         0.000         0.000         0.000
  WSL2013                    508.863         0.000         0.000         0.000         0.000
  WSL2014                    643.239         0.000         0.000         0.000         0.000
  WSL2015                    644.041         0.000         0.000         0.000         0.000
  WSL2016                    715.984         0.000         0.000         0.000         0.000
  WSL2017                    717.995         0.000         0.000         0.000         0.000
  WSL2018                    764.913         0.000         0.000         0.000         0.000
  WSL2019                    766.642         0.000         0.000         0.000         0.000
  WSL2028                    467.735         0.000         0.000         0.000         0.000
  WSL2029                    722.838         0.000         0.000         0.000         0.000
  WSL2038                     44.401         0.000         0.000         0.000         0.000
  WSL2039                     51.007         0.000         0.000         0.000         0.000
  WSL2041                     48.031         0.000         0.000         0.000         0.000
  WSL2294                    447.885         0.000         0.000         0.000         0.000
  WSL2295                    448.675         0.000         0.000         0.000         0.000
  WSL2296                    457.820         0.000         0.000         0.000         0.000
  WSL2297                    461.504         0.000         0.000         0.000         0.000
  WSL2298                    452.071         0.000         0.000         0.000         0.000
  WSL2301                    462.442         0.000         0.000         0.000         0.000
  WSL2302                    467.412         0.000         0.000         0.000         0.000
  WSL2441                    446.989         0.000         0.000         0.000         0.000
  WSL2442                    292.458         0.000         0.000         0.000         0.000
  WSL2443                    291.016         0.000         0.000         0.000         0.000
  WSL2444                    287.774         0.000         0.000         0.000         0.000
  WSL2446                    285.861         0.000         0.000         0.000         0.000
  WSL2447                    282.208         0.000         0.000         0.000         0.000
  WSL2448                    278.248         0.000         0.000         0.000         0.000
  WSL2449                    199.287         0.000         0.000         0.000         0.000
  WSL2450                    197.281         0.000         0.000         0.000         0.000
  WSL2451                    196.326         0.000         0.000         0.000         0.000
  WSL2452                    194.968         0.000         0.000         0.000         0.000
  WSL2454                    190.949         0.000         0.000         0.000         0.000
  WSL2478                    189.360         0.000         0.000         0.000         0.000
  WSL2479                    156.587         0.000         0.000         0.000         0.000
  WSL2480                    156.697         0.000         0.000         0.000         0.000
  WSL2482                    152.638         0.000         0.000         0.000         0.000
  WSL2484                    126.719         0.000         0.000         0.000         0.000
  WSL2493                    295.099         0.000         0.000         0.000         0.000
  WSL2867                    772.466         0.000         0.000         0.000         0.000
  WSL2868                    776.594         0.000         0.000         0.000         0.000
  WSL348                    1041.731         0.000         0.000         0.000         0.000
  WSL175                    1048.209         0.000         0.000         0.000         0.000
  WSL1467                   1451.779         0.000         0.000         0.000         0.000
  WSL1473                   1457.804         0.000         0.000         0.000         0.000
  XRpipe                    1063.020         0.000         0.000         0.000         0.000
  8                            3.290         0.000         0.000         0.000         0.000
  19                           0.000         0.000         0.000         0.000         0.000
  17                           0.000         0.000         0.000         0.000         0.000
  4                            0.000         0.000         0.000         0.000         0.000
  2                         1598.682         0.000         0.000         0.000         0.000
  XR-Pump-1                  160.046         0.000         0.000         0.000         0.000
  XR-Pump-3                  160.046         0.000         0.000         0.000         0.000
  XR-Pump-2                  160.046         0.000         0.000         0.000         0.000
  XR-Pump-4                  160.046         0.000         0.000         0.000         0.000
  CC-Pump-1                   18.127         0.000         0.000         0.000         0.000
  CC-Pump-2                   55.916         0.000         0.000         0.000         0.000
  JK-Pump-1                   19.943         0.000         0.000         0.000         0.000
  JK-Pump-2                   56.092         0.000         0.000         0.000         0.000
  

  Analysis begun on:  Tue Mar 19 20:21:13 2019
  Analysis ended on:  Tue Mar 19 20:21:14 2019
  Total elapsed time: 00:00:01