
  EPA STORM WATER MANAGEMENT MODEL - VERSION 5.1 (Build 5.2.0.dev1)
  --------------------------------------------------------------

  
  *********************************************************
  NOTE: The summary statistics displayed in this report are
  based on results found at every computational time step,  
  not just on results from each reporting time step.
  *********************************************************
  
  ****************
  Analysis Options
  ****************
  Flow Units ............... MLD
  Process Models:
    Rainfall/Runoff ........ YES
    RDII ................... NO
    Snowmelt ............... NO
    Groundwater ............ NO
    Flow Routing ........... YES
    Ponding Allowed ........ NO
    Water Quality .......... YES
  Infiltration Method ...... GREEN_AMPT
  Flow Routing Method ...... DYNWAVE
  Starting Date ............ 08/28/2015 08:00:00
  Ending Date .............. 08/28/2015 12:00:00
  Antecedent Dry Days ...... 4.0
  Report Time Step ......... 00:01:00
  Wet Time Step ............ 00:01:00
  Dry Time Step ............ 00:01:00
  Routing Time Step ........ 5.00 sec
  Variable Time Step ....... YES
  Maximum Trials ........... 8
  Number of Threads ........ 1
  Head Tolerance ........... 0.001500 m
  
  
  **************************        Volume         Depth
  Runoff Quantity Continuity     hectare-m            mm
  **************************     ---------       -------
  Total Precipitation ......         5.463        19.367
  Evaporation Loss .........         0.000         0.000
  Infiltration Loss ........         2.354         8.346
  Surface Runoff ...........         1.441         5.109
  Final Storage ............         1.671         5.923
  Continuity Error (%) .....        -0.055
  
  
  **************************           COD         NH3-N            TN            TP            SS
  Runoff Quality Continuity             kg            kg            kg            kg            kg
  **************************    ----------    ----------    ----------    ----------    ----------
  Initial Buildup ..........     13074.240         0.000         0.000         0.000         0.000
  Surface Buildup ..........       106.696         0.000         0.000         0.000         0.000
  Wet Deposition ...........         0.000         0.000         0.000         0.000         0.000
  Sweeping Removal .........         0.000         0.000         0.000         0.000         0.000
  Infiltration Loss ........       179.758         0.000         0.000         0.000         0.000
  BMP Removal ..............         0.000         0.000         0.000         0.000         0.000
  Surface Runoff ...........      2411.300         0.000         0.000         0.000         0.000
  Remaining Buildup ........     10587.442         0.000         0.000         0.000         0.000
  Continuity Error (%) .....         0.018         0.000         0.000         0.000         0.000
  
  
  **************************        Volume        Volume
  Flow Routing Continuity        hectare-m      10^6 ltr
  **************************     ---------     ---------
  Dry Weather Inflow .......         0.000         0.000
  Wet Weather Inflow .......         1.437        14.371
  Groundwater Inflow .......         0.000         0.000
  RDII Inflow ..............         0.000         0.000
  External Inflow ..........         0.561         5.611
  External Outflow .........         1.141        11.414
  Flooding Loss ............         0.804         8.038
  Evaporation Loss .........         0.000         0.000
  Exfiltration Loss ........         0.000         0.000
  Initial Stored Volume ....         0.000         0.000
  Final Stored Volume ......         0.099         0.990
  Continuity Error (%) .....        -2.305
  
  
  **************************           COD         NH3-N            TN            TP            SS
  Quality Routing Continuity            kg            kg            kg            kg            kg
  **************************    ----------    ----------    ----------    ----------    ----------
  Dry Weather Inflow .......         0.000         0.000         0.000         0.000         0.000
  Wet Weather Inflow .......      2406.423         0.000         0.000         0.000         0.000
  Groundwater Inflow .......         0.000         0.000         0.000         0.000         0.000
  RDII Inflow ..............         0.000         0.000         0.000         0.000         0.000
  External Inflow ..........       937.015         0.000         0.000         0.000         0.000
  External Outflow .........      1729.311         0.000         0.000         0.000         0.000
  Flooding Loss ............      1311.834         0.000         0.000         0.000         0.000
  Exfiltration Loss ........         0.000         0.000         0.000         0.000         0.000
  Mass Reacted .............         0.000         0.000         0.000         0.000         0.000
  Initial Stored Mass ......         0.000         0.000         0.000         0.000         0.000
  Final Stored Mass ........       131.154         0.000         0.000         0.000         0.000
  Continuity Error (%) .....         5.119         0.000         0.000         0.000         0.000
  
  
  *************************
  Highest Continuity Errors
  *************************
  Node WS02003099 (1.16%)
  
  
  ***************************
  Time-Step Critical Elements
  ***************************
  Link WSL2448 (33.78%)
  Link 8 (32.52%)
  Link WSL1477 (20.83%)
  Link XRpipe (5.82%)
  Link WSL2867 (1.08%)
  
  
  ********************************
  Highest Flow Instability Indexes
  ********************************
  Link WSL1477 (71)
  Link WSL1516 (63)
  Link WSL1476 (20)
  Link WSL1515 (20)
  Link WSL1521 (17)
  
  
  *************************
  Routing Time Step Summary
  *************************
  Minimum Time Step           :     0.50 sec
  Average Time Step           :     1.92 sec
  Maximum Time Step           :     5.00 sec
  Percent in Steady State     :    -0.00
  Average Iterations per Step :     2.67
  Percent Not Converging      :     7.26
  
  
  ***************************
  Subcatchment Runoff Summary
  ***************************
  
  --------------------------------------------------------------------------------------------------------
                            Total      Total      Total      Total      Total       Total     Peak  Runoff
                           Precip      Runon       Evap      Infil     Runoff      Runoff   Runoff   Coeff
  Subcatchment                 mm         mm         mm         mm         mm    10^6 ltr      MLD
  --------------------------------------------------------------------------------------------------------
  1                         19.37      23.01       0.00       9.92      20.40        0.25     4.59   0.481
  2                         19.37       0.00       0.00       7.97       6.59        0.22     4.54   0.340
  3                         19.37       0.00       0.00       8.02       6.24        0.32     6.42   0.322
  4                         19.37       0.00       0.00       7.94       6.80        0.18     3.73   0.351
  5                         19.37      16.22       0.00       9.64      16.01        0.27     5.26   0.450
  6                         19.37       0.00       0.00       8.02       6.26        0.31     6.25   0.323
  7                         19.37       0.00       0.00       8.33       5.51        8.81   155.05   0.284
  8                         19.37       0.00       0.00       8.00       6.39        0.27     5.50   0.330
  9                         19.37       6.31       0.00       8.79       9.26        0.35     6.88   0.361
  17                        19.37       0.00       0.00       7.99       6.51        0.24     4.87   0.336
  18                        19.37       0.00       0.00       8.01       6.37        0.28     5.61   0.329
  28                        19.37      21.21       0.00      10.05      17.05        0.45     8.21   0.420
  29                        19.37       8.98       0.00       8.87      10.91        0.26     5.08   0.385
  30                        19.37      24.92       0.00      10.14      23.39        0.22     4.20   0.528
  31                        19.37       0.00       0.00       7.98       6.54        0.23     4.74   0.338
  33                        19.37       0.00       0.00       7.75       7.94        0.07     1.48   0.410
  34                        19.37      14.14       0.00       9.51      14.36        0.30     5.77   0.429
  35                        19.37       0.00       0.00       7.96       6.68        0.20     4.15   0.345
  36                        19.37      13.20       0.00       9.59      11.56        0.68    12.81   0.355
  39                        19.37       0.00       0.00       7.98       6.58        0.22     4.58   0.340
  40                        19.37       3.52       0.00       8.46       7.96        0.31     6.21   0.348
  41                        19.37       0.00       0.00       7.90       7.10        0.14     2.87   0.367
  42                        19.37       0.00       0.00       7.92       6.95        0.16     3.28   0.359
  43                        19.37       0.00       0.00       7.56       8.95        0.03     0.72   0.462
  44                        19.37     192.12       0.00      15.47     165.40        0.61    10.94   0.782
  45                        19.37       0.00       0.00       7.79       7.75        0.08     1.70   0.400
  46                        19.37      11.12       0.00       9.17      12.50        0.27     5.23   0.410
  47                        19.37       0.00       0.00       7.80       7.67        0.09     1.81   0.396
  48                        19.37       5.38       0.00       8.51      10.06        0.16     3.23   0.406
  55                        19.37       8.06       0.00       8.63      12.68        0.11     2.16   0.462
  56                        19.37      12.23       0.00       9.27      13.07        0.28     5.43   0.414
  57                        19.37       0.00       0.00       8.02       6.25        0.31     6.31   0.323
  59                        19.37       0.00       0.00       7.75       7.98        0.07     1.44   0.412
  60                        19.37      17.48       0.00       9.30      20.00        0.10     2.10   0.543
  61                        19.37       0.00       0.00       8.13       5.29        0.95    18.68   0.273
  62                        19.37       0.00       0.00       8.13       5.26        1.00    19.56   0.271
  64                        19.37       0.00       0.00       7.82       7.59        0.09     1.93   0.392
  
  
  ****************************
  Subcatchment Washoff Summary
  ****************************
  
  ------------------------------------------------------------------------------------------
                                 COD         NH3-N            TN            TP            SS
  Subcatchment                    kg            kg            kg            kg            kg
  ------------------------------------------------------------------------------------------
  1                           39.935         0.000         0.000         0.000         0.000
  2                            0.000         0.000         0.000         0.000         0.000
  3                            0.000         0.000         0.000         0.000         0.000
  4                           31.090         0.000         0.000         0.000         0.000
  5                           81.451         0.000         0.000         0.000         0.000
  6                           50.227         0.000         0.000         0.000         0.000
  7                         1361.586         0.000         0.000         0.000         0.000
  8                           44.603         0.000         0.000         0.000         0.000
  9                           84.460         0.000         0.000         0.000         0.000
  17                          39.877         0.000         0.000         0.000         0.000
  18                          45.418         0.000         0.000         0.000         0.000
  28                         166.355         0.000         0.000         0.000         0.000
  29                          79.635         0.000         0.000         0.000         0.000
  30                          62.015         0.000         0.000         0.000         0.000
  31                          38.863         0.000         0.000         0.000         0.000
  33                          13.180         0.000         0.000         0.000         0.000
  34                          88.921         0.000         0.000         0.000         0.000
  35                          34.380         0.000         0.000         0.000         0.000
  36                         209.301         0.000         0.000         0.000         0.000
  39                          37.671         0.000         0.000         0.000         0.000
  40                          66.194         0.000         0.000         0.000         0.000
  41                          24.378         0.000         0.000         0.000         0.000
  42                          27.607         0.000         0.000         0.000         0.000
  43                           6.668         0.000         0.000         0.000         0.000
  44                         190.239         0.000         0.000         0.000         0.000
  45                          15.001         0.000         0.000         0.000         0.000
  46                          81.049         0.000         0.000         0.000         0.000
  47                          15.886         0.000         0.000         0.000         0.000
  48                          39.650         0.000         0.000         0.000         0.000
  55                          29.621         0.000         0.000         0.000         0.000
  56                          86.632         0.000         0.000         0.000         0.000
  57                          50.701         0.000         0.000         0.000         0.000
  59                          12.830         0.000         0.000         0.000         0.000
  60                          31.036         0.000         0.000         0.000         0.000
  61                         137.575         0.000         0.000         0.000         0.000
  62                         143.456         0.000         0.000         0.000         0.000
  64                          16.864         0.000         0.000         0.000         0.000
  ------------------------------------------------------------------------------------------
  System                    3484.356         0.000         0.000         0.000         0.000
  
  
  ******************
  Node Depth Summary
  ******************
  
  ---------------------------------------------------------------------------------
                                 Average  Maximum  Maximum  Time of Max    Reported
                                   Depth    Depth      HGL   Occurrence   Max Depth
  Node                 Type       Meters   Meters   Meters  days hr:min      Meters
  ---------------------------------------------------------------------------------
  WS01000070           JUNCTION     0.00     0.00     0.00     0  00:00        0.00
  WS01000323           JUNCTION     0.00     0.00     0.00     0  00:00        0.00
  WS01000533           JUNCTION     0.00     0.00     6.86     0  00:00        0.00
  WS01005172           JUNCTION     0.00     0.00     0.00     0  00:00        0.00
  WS01005181           JUNCTION     0.00     0.00     0.00     0  00:00        0.00
  WS01009841           JUNCTION     0.00     0.00     0.00     0  00:00        0.00
  WS02000078           JUNCTION     0.00     0.00     0.00     0  00:00        0.00
  WS02000112           JUNCTION     0.00     0.00     0.00     0  00:00        0.00
  WS02000136           JUNCTION     0.00     0.00     0.00     0  00:00        0.00
  WS02001211           JUNCTION     0.44     0.59     5.43     0  03:07        0.59
  WS02001212           JUNCTION     0.40     0.63     5.43     0  03:06        0.62
  WS02001213           JUNCTION     0.50     0.73     5.43     0  03:07        0.71
  WS02003059           JUNCTION     0.50     0.76     5.41     0  03:06        0.74
  WS02003060           JUNCTION     0.57     0.86     5.41     0  03:05        0.83
  WS02003066           JUNCTION     0.26     0.45     5.75     0  03:05        0.42
  WS02003067           JUNCTION     0.44     0.74     6.06     0  03:06        0.71
  WS02003071           JUNCTION     0.62     0.93     5.33     0  03:04        0.93
  WS02003072           JUNCTION     0.53     0.87     5.24     0  03:04        0.86
  WS02003073           JUNCTION     0.60     0.99     5.23     0  03:03        0.97
  WS02003076           JUNCTION     0.55     0.94     5.17     0  03:03        0.81
  WS02003077           JUNCTION     0.09     0.23     5.24     0  03:04        0.23
  WS02003078           JUNCTION     0.06     0.08     6.98     0  03:03        0.08
  WS02003079           JUNCTION     0.17     0.26     7.17     0  03:03        0.26
  WS02003093           JUNCTION     0.05     0.10     7.44     0  03:01        0.10
  WS02003094           JUNCTION     0.15     0.22     7.44     0  03:01        0.22
  WS02003098           JUNCTION     0.10     0.15     7.32     0  03:02        0.15
  WS02003099           JUNCTION     0.19     0.29     7.33     0  03:02        0.29
  WS02003102           JUNCTION     0.18     0.27     7.30     0  03:01        0.27
  WS02003103           JUNCTION     0.20     0.30     7.27     0  03:02        0.30
  WS02003104           JUNCTION     0.19     0.29     7.25     0  03:02        0.29
  WS02003106           JUNCTION     0.19     0.29     7.22     0  03:02        0.29
  WS02004050           JUNCTION     0.38     0.57     4.79     0  03:05        0.57
  WS02004053           JUNCTION     0.00     0.00     0.00     0  00:00        0.00
  WS02004136           JUNCTION     0.16     0.21     6.94     0  00:01        0.18
  WS02004139           JUNCTION     0.35     0.48     5.44     0  03:08        0.48
  WS02004401           JUNCTION     0.48     0.79     6.79     0  03:03        0.79
  WS02004402           JUNCTION     0.49     0.80     6.76     0  03:03        0.80
  WS02004403           JUNCTION     0.48     0.80     6.73     0  03:03        0.80
  WS02004404           JUNCTION     0.56     0.87     6.72     0  03:03        0.87
  WS02004405           JUNCTION     0.56     0.87     6.71     0  03:03        0.87
  WS02004406           JUNCTION     0.54     0.83     6.66     0  03:03        0.83
  WS02004407           JUNCTION     0.51     0.78     6.58     0  03:03        0.78
  WS02004409           JUNCTION     0.49     0.75     6.52     0  03:03        0.75
  WS02004410           JUNCTION     0.47     0.72     6.44     0  03:06        0.71
  WS02004411           JUNCTION     0.44     0.67     6.35     0  03:05        0.67
  WS02004412           JUNCTION     0.38     0.60     6.24     0  03:05        0.59
  WS02004413           JUNCTION     0.40     0.64     6.11     0  03:05        0.63
  WS02004997           JUNCTION     5.67     6.69     8.30     0  02:52        6.68
  WS02005192           JUNCTION     0.29     1.38     9.25     0  02:53        0.67
  WS02005193           JUNCTION     0.32     1.38     9.20     0  02:53        0.71
  WS02005196           JUNCTION     0.31     1.22     9.07     0  02:53        0.69
  WS02006109           JUNCTION     0.53     0.83     7.45     0  03:00        0.83
  WS02006110           JUNCTION     0.48     0.74     7.34     0  03:00        0.74
  WS02006111           JUNCTION     0.27     0.44     7.02     0  03:01        0.44
  WS02006112           JUNCTION     0.50     0.80     6.92     0  03:03        0.80
  WS02006113           JUNCTION     0.40     0.61     7.20     0  03:00        0.61
  WS02006115           JUNCTION     0.46     0.76     6.86     0  03:03        0.76
  WS02006116           JUNCTION     0.49     0.79     6.83     0  03:03        0.79
  WS02006183           JUNCTION     0.00     0.00     0.00     0  00:00        0.00
  WS02006228           JUNCTION     0.56     0.91     7.56     0  03:00        0.91
  WS02006229           JUNCTION     0.54     0.91     7.60     0  03:00        0.91
  WS02006230           JUNCTION     0.56     1.00     7.75     0  03:00        1.00
  WS02006231           JUNCTION     0.51     1.01     7.91     0  03:07        0.99
  WS02006232           JUNCTION     0.49     1.06     8.09     0  03:07        0.99
  WS02006234           JUNCTION     0.48     1.12     8.28     0  03:07        0.98
  WS02006235           JUNCTION     0.53     1.23     8.40     0  03:07        1.06
  WS02006238           JUNCTION     0.54     1.24     8.42     0  03:07        1.08
  WS02006239           JUNCTION     0.54     1.24     8.45     0  03:07        1.06
  WS02006242           JUNCTION     0.52     1.16     8.46     0  03:07        1.00
  WS02006240           JUNCTION     0.49     1.12     8.41     0  03:07        1.00
  WS02006243           JUNCTION     0.44     1.11     8.53     0  03:07        0.90
  WS02006245           JUNCTION     0.43     1.04     8.53     0  03:07        0.85
  WS02006247           JUNCTION     0.44     1.07     8.58     0  03:07        0.84
  WS02006248           JUNCTION     0.38     0.77     8.36     0  03:01        0.76
  WS02006249           JUNCTION     0.41     0.89     8.49     0  02:53        0.80
  WS02006251           JUNCTION     0.40     1.05     8.72     0  02:53        0.82
  WS02006253           JUNCTION     0.32     1.19     8.99     0  02:53        0.73
  WS02618401           JUNCTION     0.00     0.00     0.00     0  00:00        0.00
  WS8802               JUNCTION     0.00     0.00     4.38     0  00:00        0.00
  WSA1649              JUNCTION     0.00     0.00     0.00     0  00:00        0.00
  WSF200               JUNCTION     0.26     0.44     5.54     0  03:07        0.44
  XR-Inflow            JUNCTION     5.54     6.55     8.36     0  02:00        6.55
  WS02004114           JUNCTION     5.63     6.66     8.26     0  02:53        6.65
  outfall-2            OUTFALL      0.00     0.00     7.00     0  00:00        0.00
  outfall-5            OUTFALL      0.04     0.16     7.83     0  03:01        0.16
  outfall-14           OUTFALL      0.00     0.00     7.66     0  00:00        0.00
  outfall-16           OUTFALL      0.00     0.00     8.39     0  00:00        0.00
  12                   OUTFALL      0.37     0.56     0.56     0  03:05        0.55
  XR-storage           STORAGE      6.62     7.72     8.22     0  01:23        7.72
  CC-storage           STORAGE      1.20     5.63     8.81     0  02:28        5.63
  JK-storage           STORAGE      1.51     4.80     7.80     0  02:33        4.80
  
  
  *******************
  Node Inflow Summary
  *******************
  
  -------------------------------------------------------------------------------------------------
                                  Maximum  Maximum                  Lateral       Total        Flow
                                  Lateral    Total  Time of Max      Inflow      Inflow     Balance
                                   Inflow   Inflow   Occurrence      Volume      Volume       Error
  Node                 Type           MLD      MLD  days hr:min    10^6 ltr    10^6 ltr     Percent
  -------------------------------------------------------------------------------------------------
  WS01000070           JUNCTION      0.00     0.00     0  00:00           0           0       0.000 ltr
  WS01000323           JUNCTION      0.00     0.00     0  00:00           0           0       0.000 ltr
  WS01000533           JUNCTION      0.00     0.00     0  00:00           0           0       0.000 ltr
  WS01005172           JUNCTION      0.00     0.00     0  00:00           0           0       0.000 ltr
  WS01005181           JUNCTION      0.00     0.00     0  00:00           0           0       0.000 ltr
  WS01009841           JUNCTION      0.00     0.00     0  00:00           0           0       0.000 ltr
  WS02000078           JUNCTION      0.00     0.00     0  00:00           0           0       0.000 ltr
  WS02000112           JUNCTION      0.00     0.00     0  00:00           0           0       0.000 ltr
  WS02000136           JUNCTION      0.00     0.00     0  00:00           0           0       0.000 ltr
  WS02001211           JUNCTION      0.25    37.69     0  03:09      0.0407        4.47       0.584
  WS02001212           JUNCTION      0.21    39.52     0  03:23      0.0346        4.48       0.322
  WS02001213           JUNCTION      0.30    51.87     0  03:20      0.0489        4.51       0.430
  WS02003059           JUNCTION      0.23    42.84     0  03:09      0.0378        4.54       0.539
  WS02003060           JUNCTION      0.16   150.44     0  03:07      0.0252        10.3       0.352
  WS02003066           JUNCTION      0.08   135.29     0  03:06      0.0122        5.77       0.160
  WS02003067           JUNCTION      0.26   104.71     0  03:07      0.0395        5.77       0.136
  WS02003071           JUNCTION      0.35   141.61     0  03:07      0.0538        10.3       0.374
  WS02003072           JUNCTION      0.24   146.05     0  03:05      0.0382        10.3       0.235
  WS02003073           JUNCTION      0.07   169.06     0  03:04     0.00978          11       0.212
  WS02003076           JUNCTION      0.72   183.05     0  03:04        0.12        11.1       0.108
  WS02003077           JUNCTION      0.04    12.11     0  03:03      0.0059       0.656       0.128
  WS02003078           JUNCTION      0.03    13.58     0  03:03     0.00419        0.65      -0.035
  WS02003079           JUNCTION      0.04    11.86     0  03:02     0.00561       0.648       0.283
  WS02003093           JUNCTION      0.02     0.04     0  03:01     0.00306      0.0033       0.831
  WS02003094           JUNCTION      6.93     6.93     0  03:01       0.359       0.362       0.908
  WS02003098           JUNCTION      0.02     6.81     0  03:01     0.00293       0.361       0.574
  WS02003099           JUNCTION      0.07     6.74     0  03:02      0.0109        0.37       1.171
  WS02003102           JUNCTION      5.52    11.97     0  03:01       0.275       0.641       0.568
  WS02003103           JUNCTION      0.02    11.86     0  03:01     0.00239        0.64       0.414
  WS02003104           JUNCTION      0.02    11.83     0  03:02     0.00302        0.64       0.352
  WS02003106           JUNCTION      0.05    11.85     0  03:02     0.00727       0.645       0.432
  WS02004050           JUNCTION      0.72   194.35     0  03:03       0.119        11.2       0.551
  WS02004053           JUNCTION      0.00     0.00     0  00:00           0           0       0.000 ltr
  WS02004136           JUNCTION      0.44    32.92     0  01:00      0.0703        4.39       0.069
  WS02004139           JUNCTION      0.38    39.53     0  00:01      0.0619        4.44       0.390
  WS02004401           JUNCTION      0.05    79.57     0  03:02     0.00897        4.35       0.171
  WS02004402           JUNCTION      0.22    79.60     0  03:02      0.0335        4.37       0.158
  WS02004403           JUNCTION      0.23    79.72     0  03:02      0.0349         4.4       0.137
  WS02004404           JUNCTION      0.24    79.95     0  03:04      0.0365        4.43       0.132
  WS02004405           JUNCTION      3.79    83.20     0  03:03       0.192        4.62       0.191
  WS02004406           JUNCTION      8.33    91.04     0  03:03       0.469        5.08       0.269
  WS02004407           JUNCTION      0.11    91.12     0  03:03      0.0171        5.08       0.240
  WS02004409           JUNCTION      5.44    96.13     0  03:03       0.306        5.37       0.202
  WS02004410           JUNCTION      0.15    96.29     0  03:03      0.0226        5.39       0.203
  WS02004411           JUNCTION      0.25    96.57     0  03:04      0.0379        5.41       0.177
  WS02004412           JUNCTION      6.33   101.88     0  03:04       0.324        5.73       0.138
  WS02004413           JUNCTION      0.11   102.02     0  03:04      0.0172        5.74       0.132
  WS02004997           JUNCTION      0.42    63.59     0  02:52      0.0693        7.69       0.541
  WS02005192           JUNCTION      6.41     6.41     0  03:01        0.33        0.33       0.125
  WS02005193           JUNCTION      0.09     7.76     0  02:53      0.0146       0.369       0.247
  WS02005196           JUNCTION      0.12     6.99     0  02:53       0.019       0.351       0.278
  WS02006109           JUNCTION      0.08    72.88     0  03:00      0.0135        3.92       0.239
  WS02006110           JUNCTION      0.08    72.97     0  03:00      0.0132        3.92       0.222
  WS02006111           JUNCTION      0.24    79.79     0  03:01      0.0366        4.29       0.074
  WS02006112           JUNCTION      0.18    80.00     0  03:01      0.0273        4.31       0.190
  WS02006113           JUNCTION      6.56    79.53     0  03:01       0.344        4.26       0.155
  WS02006115           JUNCTION      0.08    79.89     0  03:01      0.0134        4.32       0.184
  WS02006116           JUNCTION      0.24    79.77     0  03:01       0.036        4.34       0.179
  WS02006183           JUNCTION      0.00     0.00     0  00:00           0           0       0.000 ltr
  WS02006228           JUNCTION     11.09    72.80     0  03:00       0.639        3.91       0.172
  WS02006229           JUNCTION      0.13    61.91     0  03:00        0.02        3.28       0.163
  WS02006230           JUNCTION      0.07    61.90     0  03:00      0.0116        3.26       0.149
  WS02006231           JUNCTION      0.13    61.83     0  03:00      0.0205        3.25       0.070
  WS02006232           JUNCTION      4.61    61.72     0  03:00       0.235        3.24       0.076
  WS02006234           JUNCTION      0.14    57.29     0  03:07      0.0216           3       0.076
  WS02006235           JUNCTION      0.14    57.18     0  03:07      0.0223        2.98       0.050
  WS02006238           JUNCTION      0.15    57.06     0  03:07      0.0235        2.96       0.071
  WS02006239           JUNCTION      0.11    36.53     0  02:50      0.0174        1.81       0.195
  WS02006242           JUNCTION      0.08    39.05     0  02:50      0.0129        1.79       0.247
  WS02006240           JUNCTION      0.06    38.26     0  02:50     0.00992        1.79       0.152
  WS02006243           JUNCTION      0.17    40.83     0  02:51      0.0269        1.77       0.138
  WS02006245           JUNCTION      0.07    41.91     0  02:51      0.0113        1.75       0.127
  WS02006247           JUNCTION      4.72    42.65     0  02:51       0.271        1.74       0.132
  WS02006248           JUNCTION      0.12    43.92     0  02:53      0.0192        1.77       0.058
  WS02006249           JUNCTION      0.19    43.64     0  02:53      0.0286        1.75       0.102
  WS02006251           JUNCTION      2.22    43.54     0  02:53       0.115        1.72       0.090
  WS02006253           JUNCTION      0.11    41.55     0  02:53      0.0173        1.61       0.030
  WS02618401           JUNCTION      0.00     0.00     0  00:00           0           0       0.000 ltr
  WS8802               JUNCTION      0.00     0.00     0  00:00           0           0       0.000 ltr
  WSA1649              JUNCTION      0.00     0.00     0  00:00           0           0       0.000 ltr
  WSF200               JUNCTION      0.14   119.20     0  03:05      0.0216        5.78      -0.008
  XR-Inflow            JUNCTION    172.61   172.61     0  03:01        12.1        12.1       0.214
  WS02004114           JUNCTION      0.57    64.13     0  02:52      0.0916        7.74       0.347
  outfall-2            OUTFALL       0.00     0.00     0  00:00           0           0       0.000 ltr
  outfall-5            OUTFALL       0.00    26.98     0  03:01           0       0.298       0.000
  outfall-14           OUTFALL       0.00     0.00     0  00:00           0           0       0.000 ltr
  outfall-16           OUTFALL       0.00     0.00     0  00:00           0           0       0.000 ltr
  12                   OUTFALL       0.00   167.08     0  03:05           0        11.1       0.000
  XR-storage           STORAGE       0.00    64.14     0  02:52           0        7.72      -0.752
  CC-storage           STORAGE      20.14    20.14     0  03:01        1.24        1.24     -13.505
  JK-storage           STORAGE      20.45    20.45     0  03:01        1.17        1.17     -12.089
  
  
  **********************
  Node Surcharge Summary
  **********************
  
  Surcharging occurs when water rises above the top of the highest conduit.
  ---------------------------------------------------------------------
                                               Max. Height   Min. Depth
                                   Hours       Above Crown    Below Rim
  Node                 Type      Surcharged         Meters       Meters
  ---------------------------------------------------------------------
  WS01000070           JUNCTION        4.00          0.000        0.000
  WS01000323           JUNCTION        4.00          0.000        0.000
  WS01000533           JUNCTION        4.00          0.000        2.147
  WS01005172           JUNCTION        4.00          0.000        0.000
  WS01005181           JUNCTION        4.00          0.000        0.000
  WS01009841           JUNCTION        4.00          0.000        0.000
  WS02000078           JUNCTION        4.00          0.000        0.000
  WS02000112           JUNCTION        4.00          0.000        0.000
  WS02000136           JUNCTION        4.00          0.000        0.000
  WS02004053           JUNCTION        4.00          0.000        0.000
  WS02004997           JUNCTION        3.07          5.793        0.207
  WS02005192           JUNCTION        0.22          0.777        2.042
  WS02005193           JUNCTION        0.26          0.780        1.837
  WS02005196           JUNCTION        0.24          0.623        2.083
  WS02006109           JUNCTION        0.21          0.033        1.805
  WS02006183           JUNCTION        4.00          0.000        0.000
  WS02006228           JUNCTION        0.44          0.108        2.123
  WS02006229           JUNCTION        0.43          0.111        2.343
  WS02006231           JUNCTION        0.59          0.315        1.228
  WS02006232           JUNCTION        0.53          0.358        1.131
  WS02006234           JUNCTION        0.48          0.419        0.838
  WS02006235           JUNCTION        0.52          0.528        0.766
  WS02006238           JUNCTION        0.53          0.542        0.892
  WS02006239           JUNCTION        0.53          0.536        0.793
  WS02006242           JUNCTION        0.51          0.462        0.387
  WS02006240           JUNCTION        0.49          0.415        0.988
  WS02006243           JUNCTION        0.45          0.415        0.365
  WS02006245           JUNCTION        0.42          0.340        0.515
  WS02006247           JUNCTION        0.42          0.373        0.387
  WS02006249           JUNCTION        0.35          0.188        0.200
  WS02006251           JUNCTION        0.30          0.347        1.163
  WS02006253           JUNCTION        0.15          0.486        1.968
  WS02618401           JUNCTION        4.00          0.000        0.000
  WS8802               JUNCTION        4.00          0.000        4.942
  WSA1649              JUNCTION        4.00          0.000        0.000
  XR-Inflow            JUNCTION        3.04          5.650        0.000
  WS02004114           JUNCTION        3.07          5.755        0.760
  
  
  *********************
  Node Flooding Summary
  *********************
  
  Flooding refers to all water that overflows a node, whether it ponds or not.
  --------------------------------------------------------------------------
                                                             Total   Maximum
                                 Maximum   Time of Max       Flood    Ponded
                        Hours       Rate    Occurrence      Volume     Depth
  Node                 Flooded       MLD   days hr:min    10^6 ltr    Meters
  --------------------------------------------------------------------------
  XR-Inflow               1.94    109.45      0  03:01       4.481     0.000
  XR-storage              2.60     64.06      0  02:50       3.395     0.000
  CC-storage              0.17     12.72      0  02:30       0.051     0.000
  JK-storage              0.27     14.52      0  02:40       0.112     0.000
  
  
  **********************
  Storage Volume Summary
  **********************
  
  --------------------------------------------------------------------------------------------------
                         Average     Avg  Evap Exfil       Maximum     Max    Time of Max    Maximum
                          Volume    Pcnt  Pcnt  Pcnt        Volume    Pcnt     Occurrence    Outflow
  Storage Unit           1000 m3    Full  Loss  Loss       1000 m3    Full    days hr:min        MLD
  --------------------------------------------------------------------------------------------------
  XR-storage               0.054      86     0     0         0.063     100       0  01:23      32.48
  CC-storage               0.034      21     0     0         0.159     100       0  02:28      34.56
  JK-storage               0.043      31     0     0         0.136     100       0  02:33      34.56
  
  
  ***********************
  Outfall Loading Summary
  ***********************
  
  ---------------------------------------------------------------------------------------------------------------------------------
                         Flow       Avg       Max       Total         Total         Total         Total         Total         Total
                         Freq      Flow      Flow      Volume           COD         NH3-N            TN            TP            SS
  Outfall Node           Pcnt       MLD       MLD    10^6 ltr            kg            kg            kg            kg            kg
  ---------------------------------------------------------------------------------------------------------------------------------
  outfall-2              0.00      0.00      0.00       0.000         0.000         0.000         0.000         0.000         0.000
  outfall-5             34.43     18.18     26.98       0.298        29.095         0.000         0.000         0.000         0.000
  outfall-14             0.00      0.00      0.00       0.000         0.000         0.000         0.000         0.000         0.000
  outfall-16             0.00      0.00      0.00       0.000         0.000         0.000         0.000         0.000         0.000
  12                    99.99     86.56    167.08      11.116      1700.234         0.000         0.000         0.000         0.000
  ---------------------------------------------------------------------------------------------------------------------------------
  System                26.88    104.74    190.45      11.414      1729.329         0.000         0.000         0.000         0.000
  
  
  ********************
  Link Flow Summary
  ********************
  
  -----------------------------------------------------------------------------
                                 Maximum  Time of Max   Maximum    Max/    Max/
                                  |Flow|   Occurrence   |Veloc|    Full    Full
  Link                 Type          MLD  days hr:min     m/sec    Flow   Depth
  -----------------------------------------------------------------------------
  WSL49                CONDUIT    182.33     0  03:04      2.63    2.27    0.78
  WSL1465              CONDUIT     44.35     0  03:08      1.99    0.40    0.79
  WSL1472              CONDUIT    145.84     0  03:05      2.16    1.66    0.74
  WSL1475              CONDUIT    193.63     0  03:03      3.26    2.07    0.50
  WSL1476              CONDUIT     22.64     0  03:04      0.81    0.11    0.64
  WSL1477              CONDUIT     13.56     0  03:03      2.33    0.54    0.29
  WSL1490              CONDUIT     39.31     0  03:23      1.60    0.64    0.60
  WSL1491              CONDUIT     51.59     0  03:20      1.86    0.30    0.66
  WSL1492              CONDUIT     42.62     0  03:09      1.71    0.66    0.74
  WSL1507              CONDUIT      0.13     0  03:02      0.11    0.00    0.20
  WSL1508              CONDUIT      6.80     0  03:01      0.90    0.19    0.23
  WSL1512              CONDUIT      6.68     0  03:02      0.61    0.05    0.22
  WSL1513              CONDUIT      6.82     0  03:03      0.50    0.40    0.35
  WSL1515              CONDUIT    135.22     0  03:06      3.04    1.32    0.47
  WSL1516              CONDUIT     12.08     0  03:03      4.08    0.04    0.26
  WSL1518              CONDUIT     11.85     0  03:01      0.85    0.23    0.36
  WSL1519              CONDUIT     11.81     0  03:02      0.84    0.29    0.36
  WSL1521              CONDUIT     11.83     0  03:02      0.90    0.34    0.34
  WSL1543              CONDUIT     11.81     0  03:02      0.82    0.37    0.37
  WSL1961              CONDUIT     39.15     0  00:01      3.75    0.08    0.33
  WSL1964              CONDUIT     37.45     0  03:09      1.79    0.20    0.44
  WSL2010              CONDUIT     79.54     0  03:02      1.38    1.02    0.80
  WSL2011              CONDUIT     79.76     0  03:04      1.33    0.51    0.83
  WSL2012              CONDUIT     80.00     0  03:04      1.28    1.22    0.87
  WSL2013              CONDUIT     83.19     0  03:03      1.36    2.07    0.85
  WSL2014              CONDUIT     91.02     0  03:03      1.55    1.45    0.81
  WSL2015              CONDUIT     91.17     0  03:03      1.64    1.22    0.77
  WSL2016              CONDUIT     96.16     0  03:03      1.81    1.11    0.73
  WSL2017              CONDUIT     96.37     0  03:04      1.96    1.17    0.69
  WSL2018              CONDUIT    101.92     0  03:04      2.42    0.61    0.62
  WSL2019              CONDUIT    104.50     0  03:07      2.34    0.62    0.68
  WSL2028              CONDUIT     79.42     0  03:02      1.40    0.85    0.80
  WSL2029              CONDUIT     96.64     0  03:04      2.20    1.22    0.63
  WSL2038              CONDUIT      6.88     0  02:53      0.66    0.34    1.00
  WSL2039              CONDUIT      6.89     0  02:53      1.00    0.35    1.00
  WSL2041              CONDUIT      6.57     0  02:53      0.75    0.32    1.00
  WSL2294              CONDUIT     72.89     0  03:00      1.70    2.45    0.96
  WSL2295              CONDUIT     72.99     0  03:01      1.88    3.28    0.84
  WSL2296              CONDUIT     79.85     0  03:01      2.23    0.45    0.77
  WSL2297              CONDUIT     79.81     0  03:01      1.46    1.53    0.78
  WSL2298              CONDUIT     79.59     0  03:01      2.65    3.66    0.65
  WSL2301              CONDUIT     79.58     0  03:01      1.47    0.73    0.77
  WSL2302              CONDUIT     79.52     0  03:02      1.42    0.98    0.79
  WSL2441              CONDUIT     72.81     0  03:00      1.68    1.86    1.00
  WSL2442              CONDUIT     61.80     0  03:00      1.86    1.58    1.00
  WSL2443              CONDUIT     61.83     0  03:00      1.86    0.96    1.00
  WSL2444              CONDUIT     61.72     0  03:00      1.86    0.98    1.00
  WSL2446              CONDUIT     57.29     0  03:07      1.79    0.98    1.00
  WSL2447              CONDUIT     57.18     0  03:07      1.72    2.94    1.00
  WSL2448              CONDUIT     57.06     0  03:07      1.72    1.60    1.00
  WSL2449              CONDUIT     35.52     0  02:50      1.13    1.24    1.00
  WSL2450              CONDUIT     36.43     0  02:50      1.20    0.76    1.00
  WSL2451              CONDUIT     38.20     0  02:50      1.22    2.49    1.00
  WSL2452              CONDUIT     38.98     0  02:50      1.28    0.74    1.00
  WSL2454              CONDUIT     40.67     0  02:51      1.43    0.95    1.00
  WSL2478              CONDUIT     41.85     0  02:51      1.41    1.48    1.00
  WSL2479              CONDUIT     38.93     0  02:51      1.32    0.74    1.00
  WSL2480              CONDUIT     43.81     0  02:53      1.36    2.03    1.00
  WSL2482              CONDUIT     43.48     0  02:53      1.34    1.13    1.00
  WSL2484              CONDUIT     41.66     0  02:53      1.45    0.59    1.00
  WSL2493              CONDUIT     61.91     0  03:00      1.43    1.04    1.00
  WSL2867              CONDUIT    119.08     0  03:05      4.13    0.24    0.35
  WSL2868              CONDUIT    110.72     0  03:07      2.51    0.21    0.53
  WSL348               CONDUIT     63.18     0  02:52      1.88    0.58    1.00
  WSL175               CONDUIT     63.60     0  02:52      2.38    2.14    1.00
  WSL1467              CONDUIT    141.31     0  03:07      1.99    0.75    0.72
  WSL1473              CONDUIT    156.97     0  03:04      2.37    0.64    0.76
  XRpipe               CONDUIT     64.14     0  02:52      8.80    0.16    1.00
  8                    CONDUIT     26.98     0  03:01      6.39    0.36    0.41
  19                   CONDUIT      0.00     0  00:00      0.00    0.00    0.00
  17                   CONDUIT      0.00     0  00:00      0.00    0.00    0.00
  4                    CONDUIT      0.00     0  00:00      0.00    0.00    0.00
  2                    CONDUIT    167.08     0  03:05      4.27    0.60    0.56
  XR-Pump-1            PUMP         8.12     0  00:01              1.00
  XR-Pump-3            PUMP         8.12     0  00:01              1.00
  XR-Pump-2            PUMP         8.12     0  00:01              1.00
  XR-Pump-4            PUMP         8.12     0  00:01              1.00
  CC-Pump-1            PUMP        17.28     0  02:50              1.00
  CC-Pump-2            PUMP        17.28     0  01:40              1.00
  JK-Pump-1            PUMP        17.28     0  03:00              1.00
  JK-Pump-2            PUMP        17.28     0  01:50              1.00
  
  
  ***************************
  Flow Classification Summary
  ***************************
  
  -------------------------------------------------------------------------------------
                      Adjusted    ---------- Fraction of Time in Flow Class ---------- 
                       /Actual         Up    Down  Sub   Sup   Up    Down  Norm  Inlet 
  Conduit               Length    Dry  Dry   Dry   Crit  Crit  Crit  Crit  Ltd   Ctrl  
  -------------------------------------------------------------------------------------
  WSL49                   1.00   0.00  0.00  0.00  0.99  0.01  0.00  0.00  0.00  0.00
  WSL1465                 1.00   0.00  0.00  0.00  1.00  0.00  0.00  0.00  0.06  0.00
  WSL1472                 1.00   0.00  0.00  0.00  1.00  0.00  0.00  0.00  0.00  0.00
  WSL1475                 1.00   0.00  0.00  0.00  0.16  0.84  0.00  0.00  0.01  0.00
  WSL1476                 1.00   0.00  0.00  0.00  1.00  0.00  0.00  0.00  0.99  0.00
  WSL1477                 1.00   0.00  0.00  0.00  0.00  1.00  0.00  0.00  0.42  0.00
  WSL1490                 1.00   0.00  0.00  0.00  1.00  0.00  0.00  0.00  0.02  0.00
  WSL1491                 1.00   0.00  0.00  0.00  1.00  0.00  0.00  0.00  0.08  0.00
  WSL1492                 1.00   0.00  0.00  0.00  1.00  0.00  0.00  0.00  0.03  0.00
  WSL1507                 1.00   0.00  0.00  0.00  1.00  0.00  0.00  0.00  0.47  0.00
  WSL1508                 1.00   0.00  0.00  0.00  1.00  0.00  0.00  0.00  0.00  0.00
  WSL1512                 1.00   0.00  0.00  0.00  1.00  0.00  0.00  0.00  0.97  0.00
  WSL1513                 1.00   0.00  0.00  0.00  1.00  0.00  0.00  0.00  0.00  0.00
  WSL1515                 1.00   0.00  0.00  0.00  0.12  0.88  0.00  0.00  0.04  0.00
  WSL1516                 1.00   0.00  0.00  0.00  0.00  1.00  0.00  0.00  1.00  0.00
  WSL1518                 1.00   0.00  0.00  0.00  1.00  0.00  0.00  0.00  0.40  0.00
  WSL1519                 1.00   0.00  0.00  0.00  1.00  0.00  0.00  0.00  0.32  0.00
  WSL1521                 1.00   0.00  0.00  0.00  1.00  0.00  0.00  0.00  0.02  0.00
  WSL1543                 1.00   0.00  0.00  0.00  1.00  0.00  0.00  0.00  0.02  0.00
  WSL1961                 1.00   0.00  0.00  0.00  0.03  0.97  0.00  0.00  0.99  0.00
  WSL1964                 1.00   0.00  0.00  0.00  1.00  0.00  0.00  0.00  0.12  0.00
  WSL2010                 1.00   0.00  0.00  0.00  1.00  0.00  0.00  0.00  0.04  0.00
  WSL2011                 1.00   0.00  0.00  0.00  1.00  0.00  0.00  0.00  0.18  0.00
  WSL2012                 1.00   0.00  0.00  0.00  1.00  0.00  0.00  0.00  0.00  0.00
  WSL2013                 1.00   0.00  0.00  0.00  1.00  0.00  0.00  0.00  0.00  0.00
  WSL2014                 1.00   0.00  0.00  0.00  1.00  0.00  0.00  0.00  0.00  0.00
  WSL2015                 1.00   0.00  0.00  0.00  1.00  0.00  0.00  0.00  0.02  0.00
  WSL2016                 1.00   0.00  0.00  0.00  1.00  0.00  0.00  0.00  0.06  0.00
  WSL2017                 1.00   0.00  0.00  0.00  1.00  0.00  0.00  0.00  0.04  0.00
  WSL2018                 1.00   0.00  0.00  0.00  0.01  0.99  0.00  0.00  0.09  0.00
  WSL2019                 1.00   0.00  0.00  0.00  0.51  0.49  0.00  0.00  0.11  0.00
  WSL2028                 1.00   0.00  0.00  0.00  1.00  0.00  0.00  0.00  0.08  0.00
  WSL2029                 1.00   0.00  0.00  0.00  0.70  0.30  0.00  0.00  0.00  0.00
  WSL2038                 1.00   0.00  0.00  0.00  1.00  0.00  0.00  0.00  0.02  0.00
  WSL2039                 1.00   0.00  0.00  0.00  0.93  0.07  0.00  0.00  0.01  0.00
  WSL2041                 1.00   0.00  0.00  0.00  1.00  0.00  0.00  0.00  0.17  0.00
  WSL2294                 1.00   0.00  0.00  0.00  1.00  0.00  0.00  0.00  0.00  0.00
  WSL2295                 1.00   0.00  0.00  0.00  1.00  0.00  0.00  0.00  0.00  0.00
  WSL2296                 1.00   0.00  0.00  0.00  0.49  0.51  0.00  0.00  0.60  0.00
  WSL2297                 1.00   0.00  0.00  0.00  1.00  0.00  0.00  0.00  0.00  0.00
  WSL2298                 1.00   0.00  0.00  0.00  0.05  0.95  0.00  0.00  0.00  0.00
  WSL2301                 1.00   0.00  0.00  0.00  1.00  0.00  0.00  0.00  0.09  0.00
  WSL2302                 1.00   0.00  0.00  0.00  1.00  0.00  0.00  0.00  0.03  0.00
  WSL2441                 1.00   0.00  0.00  0.00  1.00  0.00  0.00  0.00  0.01  0.00
  WSL2442                 1.00   0.00  0.00  0.00  1.00  0.00  0.00  0.00  0.09  0.00
  WSL2443                 1.00   0.00  0.00  0.00  1.00  0.00  0.00  0.00  0.38  0.00
  WSL2444                 1.00   0.00  0.00  0.00  0.52  0.48  0.00  0.00  0.28  0.00
  WSL2446                 1.00   0.00  0.00  0.00  0.59  0.41  0.00  0.00  0.17  0.00
  WSL2447                 1.00   0.00  0.00  0.00  1.00  0.00  0.00  0.00  0.00  0.00
  WSL2448                 1.00   0.00  0.00  0.00  1.00  0.00  0.00  0.00  0.02  0.00
  WSL2449                 1.00   0.00  0.00  0.00  1.00  0.00  0.00  0.00  0.04  0.00
  WSL2450                 1.00   0.00  0.00  0.00  1.00  0.00  0.00  0.00  0.31  0.00
  WSL2451                 1.00   0.00  0.00  0.00  1.00  0.00  0.00  0.00  0.00  0.00
  WSL2452                 1.00   0.00  0.00  0.00  1.00  0.00  0.00  0.00  0.54  0.00
  WSL2454                 1.00   0.00  0.00  0.00  1.00  0.00  0.00  0.00  0.06  0.00
  WSL2478                 1.00   0.00  0.00  0.00  1.00  0.00  0.00  0.00  0.00  0.00
  WSL2479                 1.00   0.00  0.00  0.00  1.00  0.00  0.00  0.00  0.39  0.00
  WSL2480                 1.00   0.00  0.00  0.00  1.00  0.00  0.00  0.00  0.00  0.00
  WSL2482                 1.00   0.00  0.00  0.00  1.00  0.00  0.00  0.00  0.50  0.00
  WSL2484                 1.00   0.00  0.00  0.00  0.99  0.01  0.00  0.00  0.55  0.00
  WSL2493                 1.00   0.00  0.00  0.00  1.00  0.00  0.00  0.00  0.05  0.00
  WSL2867                 1.00   0.00  0.00  0.00  0.00  1.00  0.00  0.00  0.24  0.00
  WSL2868                 1.00   0.00  0.00  0.00  0.78  0.22  0.00  0.00  0.75  0.00
  WSL348                  1.00   0.00  0.00  0.00  0.98  0.02  0.00  0.00  0.01  0.00
  WSL175                  1.00   0.00  0.00  0.00  0.91  0.09  0.00  0.00  0.00  0.00
  WSL1467                 1.00   0.00  0.00  0.00  1.00  0.00  0.00  0.00  0.13  0.00
  WSL1473                 1.00   0.00  0.00  0.00  1.00  0.00  0.00  0.00  0.04  0.00
  XRpipe                  1.00   0.00  0.00  0.00  0.93  0.07  0.00  0.00  0.04  0.00
  8                       1.00   0.66  0.00  0.00  0.00  0.34  0.00  0.00  0.05  0.00
  19                      1.00   1.00  0.00  0.00  0.00  0.00  0.00  0.00  0.00  0.00
  17                      1.00   1.00  0.00  0.00  0.00  0.00  0.00  0.00  0.00  0.00
  4                       1.00   1.00  0.00  0.00  0.00  0.00  0.00  0.00  0.00  0.00
  2                       1.00   0.00  0.00  0.00  0.00  1.00  0.00  0.00  0.31  0.00
  
  
  *************************
  Conduit Surcharge Summary
  *************************
  
  ----------------------------------------------------------------------------
                                                           Hours        Hours 
                         --------- Hours Full --------   Above Full   Capacity
  Conduit                Both Ends  Upstream  Dnstream   Normal Flow   Limited
  ----------------------------------------------------------------------------
  WSL49                       0.01      0.01      0.01      1.48         0.01
  WSL1472                     0.01      0.01      0.01      0.75         0.01
  WSL1475                     0.01      0.01      0.01      0.83         0.01
  WSL1476                     0.01      0.01      0.17      0.01         0.01
  WSL1515                     0.01      0.01      0.01      0.15         0.01
  WSL2010                     0.01      0.01      0.01      0.12         0.01
  WSL2012                     0.01      0.01      0.01      0.53         0.01
  WSL2013                     0.01      0.01      0.01      0.97         0.01
  WSL2014                     0.01      0.01      0.01      0.69         0.01
  WSL2015                     0.01      0.01      0.01      0.50         0.01
  WSL2016                     0.01      0.01      0.01      0.30         0.01
  WSL2017                     0.01      0.01      0.01      0.41         0.01
  WSL2029                     0.01      0.01      0.01      0.48         0.01
  WSL2038                     0.22      0.22      0.24      0.01         0.01
  WSL2039                     0.26      0.26      0.28      0.01         0.01
  WSL2041                     0.24      0.24      0.26      0.01         0.01
  WSL2294                     0.01      0.21      0.01      1.13         0.01
  WSL2295                     0.01      0.01      0.01      1.57         0.01
  WSL2297                     0.01      0.01      0.01      0.72         0.01
  WSL2298                     0.01      0.01      0.01      1.71         0.01
  WSL2441                     0.21      0.44      0.21      0.79         0.21
  WSL2442                     0.63      0.65      0.63      0.72         0.63
  WSL2443                     0.59      0.59      0.65      0.01         0.01
  WSL2444                     0.53      0.53      0.59      0.01         0.01
  WSL2446                     0.48      0.48      0.53      0.01         0.01
  WSL2447                     0.48      0.52      0.48      1.41         0.48
  WSL2448                     0.52      0.53      0.52      0.72         0.52
  WSL2449                     0.53      0.53      0.53      0.30         0.18
  WSL2450                     0.49      0.49      0.53      0.01         0.01
  WSL2451                     0.49      0.51      0.49      1.04         0.49
  WSL2452                     0.45      0.45      0.51      0.01         0.01
  WSL2454                     0.42      0.42      0.45      0.01         0.01
  WSL2478                     0.42      0.42      0.42      0.25         0.09
  WSL2479                     0.31      0.31      0.42      0.01         0.01
  WSL2480                     0.31      0.35      0.31      0.66         0.31
  WSL2482                     0.30      0.30      0.35      0.26         0.22
  WSL2484                     0.15      0.15      0.30      0.01         0.01
  WSL2493                     0.43      0.43      0.44      0.20         0.21
  WSL348                      3.04      3.04      3.07      0.01         0.01
  WSL175                      3.07      3.07      3.07      2.62         2.72
  XRpipe                      3.07      3.07      3.45      0.01         0.01
  
  
  ***************
  Pumping Summary
  ***************
  
  ---------------------------------------------------------------------------------------------------------
                                                  Min       Avg       Max     Total     Power    % Time Off
                        Percent   Number of      Flow      Flow      Flow    Volume     Usage    Pump Curve
  Pump                 Utilized   Start-Ups       MLD       MLD       MLD  10^6 ltr     Kw-hr    Low   High
  ---------------------------------------------------------------------------------------------------------
  XR-Pump-1               95.78           3      0.00      7.12      8.12     1.121      7.01    0.0    0.0
  XR-Pump-3               87.45           3      0.00      7.06      8.12     1.008      5.92    0.0    0.0
  XR-Pump-2               91.61           3      0.00      7.10      8.12     1.065      6.85    0.0    0.0
  XR-Pump-4               95.78           3      0.00      7.12      8.12     1.121      7.01    0.0    0.0
  CC-Pump-1               16.66           1      0.00     14.62     17.28     0.351      3.96    0.0    0.0
  CC-Pump-2               54.15           3      0.00     12.34     17.28     0.881      8.95    0.0    0.0
  JK-Pump-1               16.67           1      0.00     12.61     17.28     0.310      3.29    0.0    0.0
  JK-Pump-2               54.17           3      0.00     12.08     17.28     0.827      7.72    0.0    0.0
  
  
  ***************************
  Link Pollutant Load Summary
  ***************************
  
  ------------------------------------------------------------------------------------------
                                 COD         NH3-N            TN            TP            SS
  Link                            kg            kg            kg            kg            kg
  ------------------------------------------------------------------------------------------
  WSL49                     1671.639         0.000         0.000         0.000         0.000
  WSL1465                    610.624         0.000         0.000         0.000         0.000
  WSL1472                   1534.462         0.000         0.000         0.000         0.000
  WSL1475                   1689.670         0.000         0.000         0.000         0.000
  WSL1476                    136.316         0.000         0.000         0.000         0.000
  WSL1477                    134.335         0.000         0.000         0.000         0.000
  WSL1490                    596.270         0.000         0.000         0.000         0.000
  WSL1491                    600.196         0.000         0.000         0.000         0.000
  WSL1492                    605.906         0.000         0.000         0.000         0.000
  WSL1507                      0.717         0.000         0.000         0.000         0.000
  WSL1508                     86.127         0.000         0.000         0.000         0.000
  WSL1512                     86.332         0.000         0.000         0.000         0.000
  WSL1513                     87.500         0.000         0.000         0.000         0.000
  WSL1515                    920.614         0.000         0.000         0.000         0.000
  WSL1516                    135.013         0.000         0.000         0.000         0.000
  WSL1518                    132.361         0.000         0.000         0.000         0.000
  WSL1519                    132.684         0.000         0.000         0.000         0.000
  WSL1521                    133.559         0.000         0.000         0.000         0.000
  WSL1543                    132.455         0.000         0.000         0.000         0.000
  WSL1961                    585.223         0.000         0.000         0.000         0.000
  WSL1964                    592.787         0.000         0.000         0.000         0.000
  WSL2010                    563.854         0.000         0.000         0.000         0.000
  WSL2011                    568.420         0.000         0.000         0.000         0.000
  WSL2012                    573.378         0.000         0.000         0.000         0.000
  WSL2013                    604.895         0.000         0.000         0.000         0.000
  WSL2014                    771.749         0.000         0.000         0.000         0.000
  WSL2015                    772.060         0.000         0.000         0.000         0.000
  WSL2016                    857.032         0.000         0.000         0.000         0.000
  WSL2017                    858.603         0.000         0.000         0.000         0.000
  WSL2018                    914.234         0.000         0.000         0.000         0.000
  WSL2019                    915.640         0.000         0.000         0.000         0.000
  WSL2028                    559.579         0.000         0.000         0.000         0.000
  WSL2029                    863.073         0.000         0.000         0.000         0.000
  WSL2038                     53.982         0.000         0.000         0.000         0.000
  WSL2039                     60.795         0.000         0.000         0.000         0.000
  WSL2041                     57.836         0.000         0.000         0.000         0.000
  WSL2294                    542.448         0.000         0.000         0.000         0.000
  WSL2295                    542.743         0.000         0.000         0.000         0.000
  WSL2296                    551.289         0.000         0.000         0.000         0.000
  WSL2297                    554.505         0.000         0.000         0.000         0.000
  WSL2298                    545.854         0.000         0.000         0.000         0.000
  WSL2301                    555.062         0.000         0.000         0.000         0.000
  WSL2302                    559.612         0.000         0.000         0.000         0.000
  WSL2441                    542.169         0.000         0.000         0.000         0.000
  WSL2442                    346.701         0.000         0.000         0.000         0.000
  WSL2443                    345.940         0.000         0.000         0.000         0.000
  WSL2444                    343.045         0.000         0.000         0.000         0.000
  WSL2446                    341.354         0.000         0.000         0.000         0.000
  WSL2447                    338.015         0.000         0.000         0.000         0.000
  WSL2448                    334.256         0.000         0.000         0.000         0.000
  WSL2449                    225.206         0.000         0.000         0.000         0.000
  WSL2450                    222.983         0.000         0.000         0.000         0.000
  WSL2451                    222.042         0.000         0.000         0.000         0.000
  WSL2452                    220.693         0.000         0.000         0.000         0.000
  WSL2454                    216.801         0.000         0.000         0.000         0.000
  WSL2478                    215.230         0.000         0.000         0.000         0.000
  WSL2479                    171.792         0.000         0.000         0.000         0.000
  WSL2480                    197.814         0.000         0.000         0.000         0.000
  WSL2482                    193.901         0.000         0.000         0.000         0.000
  WSL2484                    162.497         0.000         0.000         0.000         0.000
  WSL2493                    349.047         0.000         0.000         0.000         0.000
  WSL2867                    921.180         0.000         0.000         0.000         0.000
  WSL2868                    924.774         0.000         0.000         0.000         0.000
  WSL348                    1138.751         0.000         0.000         0.000         0.000
  WSL175                    1145.010         0.000         0.000         0.000         0.000
  WSL1467                   1531.367         0.000         0.000         0.000         0.000
  WSL1473                   1536.922         0.000         0.000         0.000         0.000
  XRpipe                    1158.316         0.000         0.000         0.000         0.000
  8                           29.095         0.000         0.000         0.000         0.000
  19                           0.000         0.000         0.000         0.000         0.000
  17                           0.000         0.000         0.000         0.000         0.000
  4                            0.000         0.000         0.000         0.000         0.000
  2                         1700.234         0.000         0.000         0.000         0.000
  XR-Pump-1                  149.337         0.000         0.000         0.000         0.000
  XR-Pump-3                  135.653         0.000         0.000         0.000         0.000
  XR-Pump-2                  139.923         0.000         0.000         0.000         0.000
  XR-Pump-4                  149.337         0.000         0.000         0.000         0.000
  CC-Pump-1                   27.510         0.000         0.000         0.000         0.000
  CC-Pump-2                   72.922         0.000         0.000         0.000         0.000
  JK-Pump-1                   30.221         0.000         0.000         0.000         0.000
  JK-Pump-2                   75.923         0.000         0.000         0.000         0.000
  

  Analysis begun on:  Tue Mar 19 20:21:27 2019
  Analysis ended on:  Tue Mar 19 20:21:28 2019
  Total elapsed time: 00:00:01