
  EPA STORM WATER MANAGEMENT MODEL - VERSION 5.1 (Build 5.2.0.dev1)
  --------------------------------------------------------------

  
  *********************************************************
  NOTE: The summary statistics displayed in this report are
  based on results found at every computational time step,  
  not just on results from each reporting time step.
  *********************************************************
  
  ****************
  Analysis Options
  ****************
  Flow Units ............... MLD
  Process Models:
    Rainfall/Runoff ........ YES
    RDII ................... NO
    Snowmelt ............... NO
    Groundwater ............ NO
    Flow Routing ........... YES
    Ponding Allowed ........ NO
    Water Quality .......... YES
  Infiltration Method ...... GREEN_AMPT
  Flow Routing Method ...... DYNWAVE
  Starting Date ............ 08/28/2015 08:00:00
  Ending Date .............. 08/28/2015 12:00:00
  Antecedent Dry Days ...... 4.0
  Report Time Step ......... 00:01:00
  Wet Time Step ............ 00:01:00
  Dry Time Step ............ 00:01:00
  Routing Time Step ........ 5.00 sec
  Variable Time Step ....... YES
  Maximum Trials ........... 8
  Number of Threads ........ 1
  Head Tolerance ........... 0.001500 m
  
  
  **************************        Volume         Depth
  Runoff Quantity Continuity     hectare-m            mm
  **************************     ---------       -------
  Total Precipitation ......         2.762         9.792
  Evaporation Loss .........         0.000         0.000
  Infiltration Loss ........         1.432         5.076
  Surface Runoff ...........         0.553         1.960
  Final Storage ............         0.779         2.761
  Continuity Error (%) .....        -0.048
  
  
  **************************           COD         NH3-N            TN            TP            SS
  Runoff Quality Continuity             kg            kg            kg            kg            kg
  **************************    ----------    ----------    ----------    ----------    ----------
  Initial Buildup ..........     13074.240         0.000         0.000         0.000         0.000
  Surface Buildup ..........       112.842         0.000         0.000         0.000         0.000
  Wet Deposition ...........         0.000         0.000         0.000         0.000         0.000
  Sweeping Removal .........         0.000         0.000         0.000         0.000         0.000
  Infiltration Loss ........        54.932         0.000         0.000         0.000         0.000
  BMP Removal ..............         0.000         0.000         0.000         0.000         0.000
  Surface Runoff ...........       428.069         0.000         0.000         0.000         0.000
  Remaining Buildup ........     12703.715         0.000         0.000         0.000         0.000
  Continuity Error (%) .....         0.003         0.000         0.000         0.000         0.000
  
  
  **************************        Volume        Volume
  Flow Routing Continuity        hectare-m      10^6 ltr
  **************************     ---------     ---------
  Dry Weather Inflow .......         0.000         0.000
  Wet Weather Inflow .......         0.551         5.512
  Groundwater Inflow .......         0.000         0.000
  RDII Inflow ..............         0.000         0.000
  External Inflow ..........         0.561         5.611
  External Outflow .........         0.840         8.404
  Flooding Loss ............         0.232         2.317
  Evaporation Loss .........         0.000         0.000
  Exfiltration Loss ........         0.000         0.000
  Initial Stored Volume ....         0.000         0.000
  Final Stored Volume ......         0.069         0.689
  Continuity Error (%) .....        -2.575
  
  
  **************************           COD         NH3-N            TN            TP            SS
  Quality Routing Continuity            kg            kg            kg            kg            kg
  **************************    ----------    ----------    ----------    ----------    ----------
  Dry Weather Inflow .......         0.000         0.000         0.000         0.000         0.000
  Wet Weather Inflow .......       427.014         0.000         0.000         0.000         0.000
  Groundwater Inflow .......         0.000         0.000         0.000         0.000         0.000
  RDII Inflow ..............         0.000         0.000         0.000         0.000         0.000
  External Inflow ..........       937.007         0.000         0.000         0.000         0.000
  External Outflow .........       953.170         0.000         0.000         0.000         0.000
  Flooding Loss ............       250.534         0.000         0.000         0.000         0.000
  Exfiltration Loss ........         0.000         0.000         0.000         0.000         0.000
  Mass Reacted .............         0.000         0.000         0.000         0.000         0.000
  Initial Stored Mass ......         0.000         0.000         0.000         0.000         0.000
  Final Stored Mass ........        61.433         0.000         0.000         0.000         0.000
  Continuity Error (%) .....         7.249         0.000         0.000         0.000         0.000
  
  
  *************************
  Highest Continuity Errors
  *************************
  Node WS02003099 (1.32%)
  Node WS02003094 (1.08%)
  
  
  ***************************
  Time-Step Critical Elements
  ***************************
  Link WSL2448 (66.95%)
  Link WSL1477 (15.62%)
  Link XRpipe (9.01%)
  
  
  ********************************
  Highest Flow Instability Indexes
  ********************************
  Link WSL1477 (87)
  Link WSL1516 (60)
  Link WSL1515 (20)
  Link WSL2867 (17)
  Link WSL2868 (15)
  
  
  *************************
  Routing Time Step Summary
  *************************
  Minimum Time Step           :     0.50 sec
  Average Time Step           :     2.82 sec
  Maximum Time Step           :     5.00 sec
  Percent in Steady State     :    -0.00
  Average Iterations per Step :     2.82
  Percent Not Converging      :     8.25
  
  
  ***************************
  Subcatchment Runoff Summary
  ***************************
  
  --------------------------------------------------------------------------------------------------------
                            Total      Total      Total      Total      Total       Total     Peak  Runoff
                           Precip      Runon       Evap      Infil     Runoff      Runoff   Runoff   Coeff
  Subcatchment                 mm         mm         mm         mm         mm    10^6 ltr      MLD
  --------------------------------------------------------------------------------------------------------
  1                          9.79       7.53       0.00       7.14       5.97        0.07     1.32   0.345
  2                          9.79       0.00       0.00       5.99       2.55        0.09     1.60   0.261
  3                          9.79       0.00       0.00       6.00       2.46        0.13     2.31   0.252
  4                          9.79       0.00       0.00       5.99       2.60        0.07     1.29   0.266
  5                          9.79       6.37       0.00       7.08       5.30        0.09     1.65   0.328
  6                          9.79       0.00       0.00       6.00       2.47        0.12     2.25   0.252
  7                          9.79       0.00       0.00       4.21       2.15        3.45    56.52   0.220
  8                          9.79       0.00       0.00       6.00       2.50        0.11     1.96   0.256
  9                          9.79       2.46       0.00       6.47       3.35        0.13     2.32   0.273
  17                         9.79       0.00       0.00       6.00       2.53        0.09     1.72   0.259
  18                         9.79       0.00       0.00       6.00       2.50        0.11     2.00   0.255
  28                         9.79       7.02       0.00       7.14       5.19        0.14     2.45   0.308
  29                         9.79       2.88       0.00       6.46       3.59        0.09     1.59   0.283
  30                         9.79       9.69       0.00       7.48       7.49        0.07     1.28   0.384
  31                         9.79       0.00       0.00       5.99       2.54        0.09     1.67   0.260
  33                         9.79       0.00       0.00       5.95       2.85        0.02     0.48   0.291
  34                         9.79       5.39       0.00       6.95       4.77        0.10     1.81   0.314
  35                         9.79       0.00       0.00       5.99       2.57        0.08     1.45   0.263
  36                         9.79       4.76       0.00       6.88       3.95        0.23     4.19   0.272
  39                         9.79       0.00       0.00       5.99       2.55        0.09     1.62   0.260
  40                         9.79       1.32       0.00       6.26       2.95        0.12     2.13   0.266
  41                         9.79       0.00       0.00       5.98       2.67        0.05     0.98   0.273
  42                         9.79       0.00       0.00       5.98       2.63        0.06     1.13   0.269
  43                         9.79       0.00       0.00       5.90       3.08        0.01     0.23   0.315
  44                         9.79      65.86       0.00      11.16      50.16        0.19     3.24   0.663
  45                         9.79       0.00       0.00       5.96       2.81        0.03     0.56   0.287
  46                         9.79       3.91       0.00       6.70       4.12        0.09     1.63   0.300
  47                         9.79       0.00       0.00       5.96       2.80        0.03     0.60   0.285
  48                         9.79       1.96       0.00       6.35       3.47        0.05     1.04   0.295
  55                         9.79       2.89       0.00       6.48       4.14        0.03     0.66   0.326
  56                         9.79       4.32       0.00       6.76       4.27        0.09     1.68   0.302
  57                         9.79       0.00       0.00       6.00       2.47        0.12     2.27   0.252
  59                         9.79       0.00       0.00       5.95       2.86        0.02     0.47   0.292
  60                         9.79       6.40       0.00       6.97       6.25        0.03     0.63   0.386
  61                         9.79       0.00       0.00       6.02       2.18        0.39     7.08   0.222
  62                         9.79       0.00       0.00       6.02       2.16        0.41     7.43   0.221
  64                         9.79       0.00       0.00       5.96       2.78        0.03     0.64   0.284
  
  
  ****************************
  Subcatchment Washoff Summary
  ****************************
  
  ------------------------------------------------------------------------------------------
                                 COD         NH3-N            TN            TP            SS
  Subcatchment                    kg            kg            kg            kg            kg
  ------------------------------------------------------------------------------------------
  1                            4.519         0.000         0.000         0.000         0.000
  2                            0.000         0.000         0.000         0.000         0.000
  3                            0.000         0.000         0.000         0.000         0.000
  4                            5.414         0.000         0.000         0.000         0.000
  5                           15.282         0.000         0.000         0.000         0.000
  6                            9.097         0.000         0.000         0.000         0.000
  7                          237.085         0.000         0.000         0.000         0.000
  8                            8.007         0.000         0.000         0.000         0.000
  9                           14.080         0.000         0.000         0.000         0.000
  17                           7.095         0.000         0.000         0.000         0.000
  18                           8.165         0.000         0.000         0.000         0.000
  28                          26.578         0.000         0.000         0.000         0.000
  29                          12.484         0.000         0.000         0.000         0.000
  30                          15.238         0.000         0.000         0.000         0.000
  31                           6.900         0.000         0.000         0.000         0.000
  33                           2.118         0.000         0.000         0.000         0.000
  34                          15.433         0.000         0.000         0.000         0.000
  35                           6.041         0.000         0.000         0.000         0.000
  36                          33.534         0.000         0.000         0.000         0.000
  39                           6.671         0.000         0.000         0.000         0.000
  40                          11.091         0.000         0.000         0.000         0.000
  41                           4.151         0.000         0.000         0.000         0.000
  42                           4.755         0.000         0.000         0.000         0.000
  43                           1.023         0.000         0.000         0.000         0.000
  44                          41.098         0.000         0.000         0.000         0.000
  45                           2.439         0.000         0.000         0.000         0.000
  46                          12.515         0.000         0.000         0.000         0.000
  47                           2.597         0.000         0.000         0.000         0.000
  48                           6.191         0.000         0.000         0.000         0.000
  55                           4.605         0.000         0.000         0.000         0.000
  56                          13.826         0.000         0.000         0.000         0.000
  57                           9.189         0.000         0.000         0.000         0.000
  59                           2.057         0.000         0.000         0.000         0.000
  60                           6.260         0.000         0.000         0.000         0.000
  61                          25.997         0.000         0.000         0.000         0.000
  62                          27.118         0.000         0.000         0.000         0.000
  64                           2.772         0.000         0.000         0.000         0.000
  ------------------------------------------------------------------------------------------
  System                     611.426         0.000         0.000         0.000         0.000
  
  
  ******************
  Node Depth Summary
  ******************
  
  ---------------------------------------------------------------------------------
                                 Average  Maximum  Maximum  Time of Max    Reported
                                   Depth    Depth      HGL   Occurrence   Max Depth
  Node                 Type       Meters   Meters   Meters  days hr:min      Meters
  ---------------------------------------------------------------------------------
  WS01000070           JUNCTION     0.00     0.00     0.00     0  00:00        0.00
  WS01000323           JUNCTION     0.00     0.00     0.00     0  00:00        0.00
  WS01000533           JUNCTION     0.00     0.00     6.86     0  00:00        0.00
  WS01005172           JUNCTION     0.00     0.00     0.00     0  00:00        0.00
  WS01005181           JUNCTION     0.00     0.00     0.00     0  00:00        0.00
  WS01009841           JUNCTION     0.00     0.00     0.00     0  00:00        0.00
  WS02000078           JUNCTION     0.00     0.00     0.00     0  00:00        0.00
  WS02000112           JUNCTION     0.00     0.00     0.00     0  00:00        0.00
  WS02000136           JUNCTION     0.00     0.00     0.00     0  00:00        0.00
  WS02001211           JUNCTION     0.41     0.47     5.31     0  03:18        0.47
  WS02001212           JUNCTION     0.34     0.44     5.24     0  03:17        0.43
  WS02001213           JUNCTION     0.43     0.55     5.25     0  03:17        0.55
  WS02003059           JUNCTION     0.39     0.57     5.22     0  03:16        0.56
  WS02003060           JUNCTION     0.44     0.66     5.21     0  03:19        0.66
  WS02003066           JUNCTION     0.17     0.34     5.64     0  03:18        0.32
  WS02003067           JUNCTION     0.28     0.56     5.88     0  03:14        0.55
  WS02003071           JUNCTION     0.49     0.70     5.10     0  03:15        0.70
  WS02003072           JUNCTION     0.41     0.62     4.99     0  03:20        0.60
  WS02003073           JUNCTION     0.47     0.72     4.96     0  03:28        0.71
  WS02003076           JUNCTION     0.43     0.66     4.89     0  03:19        0.62
  WS02003077           JUNCTION     0.05     0.08     5.09     0  03:07        0.08
  WS02003078           JUNCTION     0.03     0.05     6.95     0  02:56        0.05
  WS02003079           JUNCTION     0.10     0.16     7.07     0  02:56        0.16
  WS02003093           JUNCTION     0.01     0.02     7.36     0  03:02        0.02
  WS02003094           JUNCTION     0.09     0.14     7.36     0  03:01        0.14
  WS02003098           JUNCTION     0.05     0.09     7.26     0  03:02        0.09
  WS02003099           JUNCTION     0.11     0.17     7.21     0  03:03        0.17
  WS02003102           JUNCTION     0.09     0.16     7.19     0  03:01        0.16
  WS02003103           JUNCTION     0.11     0.18     7.15     0  03:02        0.18
  WS02003104           JUNCTION     0.11     0.18     7.14     0  03:02        0.18
  WS02003106           JUNCTION     0.11     0.17     7.10     0  03:03        0.17
  WS02004050           JUNCTION     0.30     0.43     4.65     0  03:20        0.43
  WS02004053           JUNCTION     0.00     0.00     0.00     0  00:00        0.00
  WS02004136           JUNCTION     0.17     0.21     6.94     0  00:01        0.18
  WS02004139           JUNCTION     0.34     0.38     5.34     0  03:19        0.38
  WS02004401           JUNCTION     0.29     0.61     6.61     0  03:14        0.60
  WS02004402           JUNCTION     0.29     0.61     6.57     0  03:14        0.61
  WS02004403           JUNCTION     0.28     0.60     6.53     0  03:12        0.60
  WS02004404           JUNCTION     0.36     0.69     6.54     0  03:13        0.68
  WS02004405           JUNCTION     0.36     0.68     6.52     0  03:12        0.68
  WS02004406           JUNCTION     0.34     0.64     6.47     0  03:13        0.64
  WS02004407           JUNCTION     0.32     0.61     6.41     0  03:13        0.60
  WS02004409           JUNCTION     0.31     0.58     6.35     0  03:13        0.58
  WS02004410           JUNCTION     0.30     0.56     6.28     0  03:14        0.56
  WS02004411           JUNCTION     0.28     0.51     6.19     0  03:14        0.51
  WS02004412           JUNCTION     0.23     0.45     6.09     0  03:14        0.45
  WS02004413           JUNCTION     0.24     0.48     5.95     0  03:14        0.48
  WS02004997           JUNCTION     5.20     6.68     8.29     0  03:00        6.68
  WS02005192           JUNCTION     0.12     0.36     8.23     0  03:11        0.36
  WS02005193           JUNCTION     0.14     0.41     8.23     0  03:10        0.40
  WS02005196           JUNCTION     0.13     0.38     8.23     0  03:11        0.38
  WS02006109           JUNCTION     0.34     0.71     7.33     0  03:10        0.71
  WS02006110           JUNCTION     0.32     0.63     7.23     0  03:10        0.62
  WS02006111           JUNCTION     0.17     0.37     6.95     0  03:11        0.37
  WS02006112           JUNCTION     0.32     0.64     6.76     0  03:11        0.63
  WS02006113           JUNCTION     0.27     0.53     7.12     0  03:12        0.52
  WS02006115           JUNCTION     0.28     0.59     6.69     0  03:11        0.58
  WS02006116           JUNCTION     0.30     0.61     6.65     0  03:12        0.61
  WS02006183           JUNCTION     0.00     0.00     0.00     0  00:00        0.00
  WS02006228           JUNCTION     0.34     0.75     7.40     0  03:09        0.75
  WS02006229           JUNCTION     0.32     0.74     7.43     0  03:09        0.74
  WS02006230           JUNCTION     0.31     0.81     7.56     0  03:09        0.77
  WS02006231           JUNCTION     0.25     0.80     7.70     0  03:09        0.73
  WS02006232           JUNCTION     0.23     0.79     7.82     0  03:09        0.70
  WS02006234           JUNCTION     0.23     0.81     7.97     0  03:09        0.65
  WS02006235           JUNCTION     0.28     0.90     8.07     0  03:09        0.72
  WS02006238           JUNCTION     0.28     0.92     8.10     0  03:09        0.74
  WS02006239           JUNCTION     0.28     0.94     8.15     0  03:09        0.73
  WS02006242           JUNCTION     0.27     0.87     8.17     0  03:09        0.73
  WS02006240           JUNCTION     0.23     0.91     8.20     0  03:09        0.69
  WS02006243           JUNCTION     0.20     0.68     8.10     0  03:09        0.66
  WS02006245           JUNCTION     0.20     0.65     8.14     0  03:10        0.61
  WS02006247           JUNCTION     0.22     0.65     8.16     0  03:10        0.62
  WS02006248           JUNCTION     0.18     0.60     8.19     0  03:11        0.59
  WS02006249           JUNCTION     0.21     0.64     8.24     0  03:10        0.63
  WS02006251           JUNCTION     0.20     0.56     8.23     0  03:10        0.56
  WS02006253           JUNCTION     0.14     0.43     8.23     0  03:10        0.42
  WS02618401           JUNCTION     0.00     0.00     0.00     0  00:00        0.00
  WS8802               JUNCTION     0.00     0.00     4.38     0  00:00        0.00
  WSA1649              JUNCTION     0.00     0.00     0.00     0  00:00        0.00
  WSF200               JUNCTION     0.16     0.34     5.44     0  03:18        0.31
  XR-Inflow            JUNCTION     5.06     6.55     8.36     0  02:46        6.55
  WS02004114           JUNCTION     5.17     6.65     8.25     0  03:00        6.65
  outfall-2            OUTFALL      0.00     0.00     7.00     0  00:00        0.00
  outfall-5            OUTFALL      0.00     0.00     7.67     0  00:00        0.00
  outfall-14           OUTFALL      0.00     0.00     7.66     0  00:00        0.00
  outfall-16           OUTFALL      0.00     0.00     8.39     0  00:00        0.00
  12                   OUTFALL      0.30     0.43     0.43     0  03:22        0.43
  XR-storage           STORAGE      6.12     7.72     8.22     0  01:25        7.72
  CC-storage           STORAGE      1.16     5.63     8.81     0  02:54        5.62
  JK-storage           STORAGE      0.98     4.80     7.80     0  02:49        4.80
  
  
  *******************
  Node Inflow Summary
  *******************
  
  -------------------------------------------------------------------------------------------------
                                  Maximum  Maximum                  Lateral       Total        Flow
                                  Lateral    Total  Time of Max      Inflow      Inflow     Balance
                                   Inflow   Inflow   Occurrence      Volume      Volume       Error
  Node                 Type           MLD      MLD  days hr:min    10^6 ltr    10^6 ltr     Percent
  -------------------------------------------------------------------------------------------------
  WS01000070           JUNCTION      0.00     0.00     0  00:00           0           0       0.000 ltr
  WS01000323           JUNCTION      0.00     0.00     0  00:00           0           0       0.000 ltr
  WS01000533           JUNCTION      0.00     0.00     0  00:00           0           0       0.000 ltr
  WS01005172           JUNCTION      0.00     0.00     0  00:00           0           0       0.000 ltr
  WS01005181           JUNCTION      0.00     0.00     0  00:00           0           0       0.000 ltr
  WS01009841           JUNCTION      0.00     0.00     0  00:00           0           0       0.000 ltr
  WS02000078           JUNCTION      0.00     0.00     0  00:00           0           0       0.000 ltr
  WS02000112           JUNCTION      0.00     0.00     0  00:00           0           0       0.000 ltr
  WS02000136           JUNCTION      0.00     0.00     0  00:00           0           0       0.000 ltr
  WS02001211           JUNCTION      0.25    35.75     0  00:02      0.0407        4.69       0.545
  WS02001212           JUNCTION      0.21    35.15     0  00:04      0.0346         4.7       0.308
  WS02001213           JUNCTION      0.30    35.27     0  03:26      0.0489        4.74       0.394
  WS02003059           JUNCTION      0.23    36.94     0  00:05      0.0378        4.76       0.484
  WS02003060           JUNCTION      0.16   106.60     0  03:18      0.0252        7.95       0.395
  WS02003066           JUNCTION      0.08    82.11     0  03:14      0.0122        3.18       0.187
  WS02003067           JUNCTION      0.26    66.72     0  03:15      0.0395        3.17       0.201
  WS02003071           JUNCTION      0.35    99.35     0  03:19      0.0538        7.97       0.426
  WS02003072           JUNCTION      0.24    99.06     0  03:19      0.0382        7.98       0.263
  WS02003073           JUNCTION      0.07   106.72     0  03:20     0.00978        8.25       0.251
  WS02003076           JUNCTION      0.72   112.57     0  03:20        0.12        8.35       0.132
  WS02003077           JUNCTION      0.04     4.66     0  02:56      0.0059       0.281       0.149
  WS02003078           JUNCTION      0.03     5.39     0  02:56     0.00419       0.275      -0.106
  WS02003079           JUNCTION      0.04     4.30     0  03:03     0.00561       0.272       0.344
  WS02003093           JUNCTION      0.02     0.02     0  01:00     0.00306     0.00306       0.741
  WS02003094           JUNCTION      2.37     2.38     0  03:01       0.136       0.139       1.087
  WS02003098           JUNCTION      0.02     2.36     0  03:01     0.00293        0.14       0.606
  WS02003099           JUNCTION      0.07     2.40     0  03:02      0.0109       0.151       1.336
  WS02003102           JUNCTION      1.98     4.29     0  03:01        0.11       0.259       0.605
  WS02003103           JUNCTION      0.02     4.26     0  03:01     0.00239        0.26       0.457
  WS02003104           JUNCTION      0.02     4.26     0  03:02     0.00302       0.261       0.383
  WS02003106           JUNCTION      0.05     4.29     0  03:02     0.00727       0.268       0.486
  WS02004050           JUNCTION      0.72   119.11     0  03:20       0.119        8.46       0.611
  WS02004053           JUNCTION      0.00     0.00     0  00:00           0           0       0.000 ltr
  WS02004136           JUNCTION      0.44    32.92     0  01:40      0.0703        4.61       0.065
  WS02004139           JUNCTION      0.38    39.53     0  00:01      0.0619        4.67       0.369
  WS02004401           JUNCTION      0.05    60.78     0  03:12     0.00897         2.5       0.202
  WS02004402           JUNCTION      0.22    60.58     0  03:12      0.0335        2.53       0.185
  WS02004403           JUNCTION      0.23    60.44     0  03:12      0.0349        2.56       0.146
  WS02004404           JUNCTION      0.24    60.37     0  03:12      0.0365         2.6       0.166
  WS02004405           JUNCTION      1.36    60.95     0  03:12      0.0807        2.67       0.221
  WS02004406           JUNCTION      2.56    62.62     0  03:13       0.158        2.82       0.326
  WS02004407           JUNCTION      0.11    62.23     0  03:13      0.0171        2.83       0.289
  WS02004409           JUNCTION      1.84    63.26     0  03:13       0.124        2.95       0.245
  WS02004410           JUNCTION      0.15    63.31     0  03:13      0.0226        2.96       0.252
  WS02004411           JUNCTION      0.25    63.53     0  03:14      0.0379        2.99       0.218
  WS02004412           JUNCTION      2.33    64.65     0  03:14       0.137        3.12       0.167
  WS02004413           JUNCTION      0.11    64.89     0  03:15      0.0172        3.14       0.155
  WS02004997           JUNCTION      0.42    63.57     0  03:00      0.0693        6.68       0.626
  WS02005192           JUNCTION      2.36     2.36     0  03:01       0.141       0.141       0.169
  WS02005193           JUNCTION      0.09     8.62     0  03:11      0.0146       0.179       0.356
  WS02005196           JUNCTION      0.12     4.07     0  03:11       0.019       0.162       0.358
  WS02006109           JUNCTION      0.08    60.36     0  03:10      0.0135        2.25       0.269
  WS02006110           JUNCTION      0.08    59.94     0  03:10      0.0132        2.26       0.261
  WS02006111           JUNCTION      0.24    61.40     0  03:10      0.0366        2.44       0.090
  WS02006112           JUNCTION      0.18    61.64     0  03:11      0.0273        2.46       0.225
  WS02006113           JUNCTION      2.46    61.22     0  03:10       0.152        2.41       0.183
  WS02006115           JUNCTION      0.08    61.41     0  03:11      0.0134        2.47       0.215
  WS02006116           JUNCTION      0.24    61.11     0  03:11       0.036         2.5       0.216
  WS02006183           JUNCTION      0.00     0.00     0  00:00           0           0       0.000 ltr
  WS02006228           JUNCTION      3.39    60.57     0  03:09       0.214        2.24       0.188
  WS02006229           JUNCTION      0.13    57.61     0  03:09        0.02        2.03       0.155
  WS02006230           JUNCTION      0.07    58.45     0  03:09      0.0116        2.02       0.132
  WS02006231           JUNCTION      0.13    58.27     0  03:09      0.0205           2       0.074
  WS02006232           JUNCTION      1.67    58.17     0  03:09      0.0995        1.99       0.071
  WS02006234           JUNCTION      0.14    58.05     0  03:08      0.0216        1.89       0.064
  WS02006235           JUNCTION      0.14    57.91     0  03:08      0.0223        1.87       0.053
  WS02006238           JUNCTION      0.15    57.83     0  03:09      0.0235        1.85       0.093
  WS02006239           JUNCTION      0.11    39.25     0  03:12      0.0174         1.2       0.192
  WS02006242           JUNCTION      0.08    39.05     0  03:11      0.0129        1.17       0.219
  WS02006240           JUNCTION      0.06    39.45     0  03:12     0.00992        1.18       0.141
  WS02006243           JUNCTION      0.17    39.74     0  03:11      0.0269        1.16       0.119
  WS02006245           JUNCTION      0.07    38.23     0  03:11      0.0113        1.14       0.101
  WS02006247           JUNCTION      1.45    37.34     0  03:11      0.0972        1.13       0.112
  WS02006248           JUNCTION      0.12    34.85     0  03:11      0.0192        1.03       0.060
  WS02006249           JUNCTION      0.19    35.30     0  03:10      0.0286        1.01       0.124
  WS02006251           JUNCTION      0.72    35.78     0  03:10      0.0441       0.985       0.089
  WS02006253           JUNCTION      0.11    35.63     0  03:10      0.0173       0.945       0.030
  WS02618401           JUNCTION      0.00     0.00     0  00:00           0           0       0.000 ltr
  WS8802               JUNCTION      0.00     0.00     0  00:00           0           0       0.000 ltr
  WSA1649              JUNCTION      0.00     0.00     0  00:00           0           0       0.000 ltr
  WSF200               JUNCTION      0.14    75.88     0  03:18      0.0216        3.19      -0.026
  XR-Inflow            JUNCTION     74.55    74.55     0  03:00        6.78        6.78       0.395
  WS02004114           JUNCTION      0.57    64.10     0  03:00      0.0916        6.73       0.398
  outfall-2            OUTFALL       0.00     0.00     0  00:00           0           0       0.000 ltr
  outfall-5            OUTFALL       0.00     0.00     0  00:00           0           0       0.000 ltr
  outfall-14           OUTFALL       0.00     0.00     0  00:00           0           0       0.000 ltr
  outfall-16           OUTFALL       0.00     0.00     0  00:00           0           0       0.000 ltr
  12                   OUTFALL       0.00   104.68     0  03:22           0         8.4       0.000
  XR-storage           STORAGE       0.00    64.10     0  03:00           0         6.7      -0.889
  CC-storage           STORAGE       8.60     8.60     0  03:00       0.679       0.679     -12.274
  JK-storage           STORAGE       8.32     8.32     0  03:01       0.587       0.587     -13.728
  
  
  **********************
  Node Surcharge Summary
  **********************
  
  Surcharging occurs when water rises above the top of the highest conduit.
  ---------------------------------------------------------------------
                                               Max. Height   Min. Depth
                                   Hours       Above Crown    Below Rim
  Node                 Type      Surcharged         Meters       Meters
  ---------------------------------------------------------------------
  WS01000070           JUNCTION        4.00          0.000        0.000
  WS01000323           JUNCTION        4.00          0.000        0.000
  WS01000533           JUNCTION        4.00          0.000        2.147
  WS01005172           JUNCTION        4.00          0.000        0.000
  WS01005181           JUNCTION        4.00          0.000        0.000
  WS01009841           JUNCTION        4.00          0.000        0.000
  WS02000078           JUNCTION        4.00          0.000        0.000
  WS02000112           JUNCTION        4.00          0.000        0.000
  WS02000136           JUNCTION        4.00          0.000        0.000
  WS02004053           JUNCTION        4.00          0.000        0.000
  WS02004997           JUNCTION        3.05          5.783        0.217
  WS02006183           JUNCTION        4.00          0.000        0.000
  WS02006231           JUNCTION        0.03          0.103        1.440
  WS02006232           JUNCTION        0.01          0.092        1.397
  WS02006234           JUNCTION        0.01          0.113        1.144
  WS02006235           JUNCTION        0.02          0.204        1.090
  WS02006238           JUNCTION        0.02          0.217        1.217
  WS02006239           JUNCTION        0.02          0.235        1.094
  WS02006242           JUNCTION        0.02          0.175        0.674
  WS02006240           JUNCTION        0.01          0.215        1.188
  WS02618401           JUNCTION        4.00          0.000        0.000
  WS8802               JUNCTION        4.00          0.000        4.942
  WSA1649              JUNCTION        4.00          0.000        0.000
  XR-Inflow            JUNCTION        3.02          5.650        0.000
  WS02004114           JUNCTION        3.06          5.748        0.767
  
  
  *********************
  Node Flooding Summary
  *********************
  
  Flooding refers to all water that overflows a node, whether it ponds or not.
  --------------------------------------------------------------------------
                                                             Total   Maximum
                                 Maximum   Time of Max       Flood    Ponded
                        Hours       Rate    Occurrence      Volume     Depth
  Node                 Flooded       MLD   days hr:min    10^6 ltr    Meters
  --------------------------------------------------------------------------
  XR-Inflow               0.66     11.39      0  03:00       0.146     0.000
  XR-storage              2.33     31.62      0  03:00       2.158     0.000
  JK-storage              0.08      7.41      0  02:50       0.014     0.000
  
  
  **********************
  Storage Volume Summary
  **********************
  
  --------------------------------------------------------------------------------------------------
                         Average     Avg  Evap Exfil       Maximum     Max    Time of Max    Maximum
                          Volume    Pcnt  Pcnt  Pcnt        Volume    Pcnt     Occurrence    Outflow
  Storage Unit           1000 m3    Full  Loss  Loss       1000 m3    Full    days hr:min        MLD
  --------------------------------------------------------------------------------------------------
  XR-storage               0.050      79     0     0         0.063     100       0  01:25      32.48
  CC-storage               0.033      21     0     0         0.159     100       0  02:54      34.56
  JK-storage               0.028      21     0     0         0.136     100       0  02:49      33.58
  
  
  ***********************
  Outfall Loading Summary
  ***********************
  
  ---------------------------------------------------------------------------------------------------------------------------------
                         Flow       Avg       Max       Total         Total         Total         Total         Total         Total
                         Freq      Flow      Flow      Volume           COD         NH3-N            TN            TP            SS
  Outfall Node           Pcnt       MLD       MLD    10^6 ltr            kg            kg            kg            kg            kg
  ---------------------------------------------------------------------------------------------------------------------------------
  outfall-2              0.00      0.00      0.00       0.000         0.000         0.000         0.000         0.000         0.000
  outfall-5              0.00      0.00      0.00       0.000         0.000         0.000         0.000         0.000         0.000
  outfall-14             0.00      0.00      0.00       0.000         0.000         0.000         0.000         0.000         0.000
  outfall-16             0.00      0.00      0.00       0.000         0.000         0.000         0.000         0.000         0.000
  12                    99.98     55.78    104.68       8.404       953.246         0.000         0.000         0.000         0.000
  ---------------------------------------------------------------------------------------------------------------------------------
  System                20.00     55.78    104.68       8.404       953.246         0.000         0.000         0.000         0.000
  
  
  ********************
  Link Flow Summary
  ********************
  
  -----------------------------------------------------------------------------
                                 Maximum  Time of Max   Maximum    Max/    Max/
                                  |Flow|   Occurrence   |Veloc|    Full    Full
  Link                 Type          MLD  days hr:min     m/sec    Flow   Depth
  -----------------------------------------------------------------------------
  WSL49                CONDUIT    111.85     0  03:20      2.29    1.39    0.56
  WSL1465              CONDUIT     38.80     0  03:25      1.99    0.35    0.61
  WSL1472              CONDUIT     98.85     0  03:19      1.86    1.13    0.55
  WSL1475              CONDUIT    118.39     0  03:20      2.62    1.26    0.38
  WSL1476              CONDUIT      4.36     0  03:07      0.40    0.02    0.49
  WSL1477              CONDUIT      5.36     0  02:56      1.84    0.21    0.18
  WSL1490              CONDUIT     34.94     0  00:04      1.60    0.57    0.45
  WSL1491              CONDUIT     34.99     0  03:26      1.86    0.20    0.49
  WSL1492              CONDUIT     36.71     0  00:05      1.71    0.57    0.55
  WSL1507              CONDUIT      0.06     0  03:03      0.11    0.00    0.10
  WSL1508              CONDUIT      2.35     0  03:01      0.61    0.07    0.14
  WSL1512              CONDUIT      2.35     0  03:02      0.45    0.02    0.13
  WSL1513              CONDUIT      2.41     0  03:04      0.38    0.14    0.21
  WSL1515              CONDUIT     82.04     0  03:14      2.61    0.80    0.36
  WSL1516              CONDUIT      4.63     0  02:56      3.16    0.02    0.11
  WSL1518              CONDUIT      4.25     0  03:01      0.63    0.08    0.21
  WSL1519              CONDUIT      4.25     0  03:02      0.61    0.11    0.22
  WSL1521              CONDUIT      4.28     0  03:03      0.66    0.12    0.21
  WSL1543              CONDUIT      4.24     0  03:02      0.59    0.13    0.22
  WSL1961              CONDUIT     39.15     0  00:01      3.75    0.08    0.28
  WSL1964              CONDUIT     35.50     0  00:02      1.79    0.19    0.35
  WSL2010              CONDUIT     60.26     0  03:12      1.40    0.77    0.61
  WSL2011              CONDUIT     60.18     0  03:12      1.31    0.39    0.64
  WSL2012              CONDUIT     60.21     0  03:12      1.23    0.92    0.68
  WSL2013              CONDUIT     60.78     0  03:13      1.27    1.51    0.66
  WSL2014              CONDUIT     62.13     0  03:13      1.40    0.99    0.62
  WSL2015              CONDUIT     61.99     0  03:13      1.48    0.83    0.59
  WSL2016              CONDUIT     63.18     0  03:13      1.59    0.73    0.57
  WSL2017              CONDUIT     63.33     0  03:14      1.73    0.77    0.53
  WSL2018              CONDUIT     64.79     0  03:15      2.14    0.39    0.47
  WSL2019              CONDUIT     66.51     0  03:15      1.99    0.39    0.52
  WSL2028              CONDUIT     60.40     0  03:12      1.40    0.65    0.61
  WSL2029              CONDUIT     63.38     0  03:14      1.97    0.80    0.48
  WSL2038              CONDUIT      3.97     0  03:11      0.54    0.20    0.62
  WSL2039              CONDUIT     11.10     0  03:11      0.84    0.57    0.69
  WSL2041              CONDUIT      8.54     0  03:11      0.69    0.42    0.66
  WSL2294              CONDUIT     59.86     0  03:10      1.54    2.01    0.84
  WSL2295              CONDUIT     59.64     0  03:10      1.77    2.68    0.72
  WSL2296              CONDUIT     61.49     0  03:11      2.14    0.35    0.63
  WSL2297              CONDUIT     61.34     0  03:11      1.41    1.18    0.61
  WSL2298              CONDUIT     61.21     0  03:10      2.50    2.82    0.56
  WSL2301              CONDUIT     60.92     0  03:11      1.44    0.56    0.60
  WSL2302              CONDUIT     60.73     0  03:12      1.41    0.75    0.61
  WSL2441              CONDUIT     60.28     0  03:10      1.45    1.54    0.91
  WSL2442              CONDUIT     57.50     0  03:09      1.73    1.47    1.00
  WSL2443              CONDUIT     58.38     0  03:09      1.76    0.91    1.00
  WSL2444              CONDUIT     58.16     0  03:09      1.80    0.92    1.00
  WSL2446              CONDUIT     57.08     0  03:09      1.88    0.98    1.00
  WSL2447              CONDUIT     57.94     0  03:08      1.79    2.98    1.00
  WSL2448              CONDUIT     57.79     0  03:08      1.74    1.62    1.00
  WSL2449              CONDUIT     38.96     0  03:12      1.21    1.36    1.00
  WSL2450              CONDUIT     39.15     0  03:12      1.23    0.81    1.00
  WSL2451              CONDUIT     39.39     0  03:12      1.22    2.57    1.00
  WSL2452              CONDUIT     38.98     0  03:11      1.22    0.74    0.99
  WSL2454              CONDUIT     39.59     0  03:11      1.30    0.92    0.92
  WSL2478              CONDUIT     38.16     0  03:11      1.28    1.35    0.92
  WSL2479              CONDUIT     36.25     0  03:11      1.28    0.69    0.88
  WSL2480              CONDUIT     34.75     0  03:11      1.33    1.61    0.88
  WSL2482              CONDUIT     35.15     0  03:10      1.30    0.92    0.85
  WSL2484              CONDUIT     35.32     0  03:10      1.47    0.50    0.70
  WSL2493              CONDUIT     57.33     0  03:09      1.36    0.96    0.93
  WSL2867              CONDUIT     75.76     0  03:18      3.61    0.16    0.27
  WSL2868              CONDUIT     70.53     0  03:18      1.93    0.13    0.41
  WSL348               CONDUIT     63.16     0  03:00      1.88    0.58    1.00
  WSL175               CONDUIT     63.56     0  03:00      2.34    2.14    1.00
  WSL1467              CONDUIT     99.06     0  03:19      1.76    0.53    0.56
  WSL1473              CONDUIT    103.91     0  03:20      2.01    0.43    0.55
  XRpipe               CONDUIT     64.10     0  03:00      8.80    0.16    1.00
  8                    CONDUIT      0.00     0  00:00      0.00    0.00    0.00
  19                   CONDUIT      0.00     0  00:00      0.00    0.00    0.00
  17                   CONDUIT      0.00     0  00:00      0.00    0.00    0.00
  4                    CONDUIT      0.00     0  00:00      0.00    0.00    0.00
  2                    CONDUIT    104.68     0  03:22      3.79    0.38    0.43
  XR-Pump-1            PUMP         8.12     0  00:01              1.00
  XR-Pump-3            PUMP         8.12     0  00:01              1.00
  XR-Pump-2            PUMP         8.12     0  00:01              1.00
  XR-Pump-4            PUMP         8.12     0  00:01              1.00
  CC-Pump-1            PUMP        17.28     0  03:10              1.00
  CC-Pump-2            PUMP        17.28     0  01:50              1.00
  JK-Pump-1            PUMP        16.30     0  03:09              0.94
  JK-Pump-2            PUMP        17.28     0  01:50              1.00
  
  
  ***************************
  Flow Classification Summary
  ***************************
  
  -------------------------------------------------------------------------------------
                      Adjusted    ---------- Fraction of Time in Flow Class ---------- 
                       /Actual         Up    Down  Sub   Sup   Up    Down  Norm  Inlet 
  Conduit               Length    Dry  Dry   Dry   Crit  Crit  Crit  Crit  Ltd   Ctrl  
  -------------------------------------------------------------------------------------
  WSL49                   1.00   0.00  0.00  0.00  1.00  0.00  0.00  0.00  0.00  0.00
  WSL1465                 1.00   0.00  0.00  0.00  0.99  0.01  0.00  0.00  0.09  0.00
  WSL1472                 1.00   0.00  0.00  0.00  1.00  0.00  0.00  0.00  0.00  0.00
  WSL1475                 1.00   0.00  0.00  0.00  0.11  0.89  0.00  0.00  0.00  0.00
  WSL1476                 1.00   0.00  0.00  0.00  1.00  0.00  0.00  0.00  1.00  0.00
  WSL1477                 1.00   0.00  0.00  0.00  0.01  0.99  0.00  0.00  0.38  0.00
  WSL1490                 1.00   0.00  0.00  0.00  1.00  0.00  0.00  0.00  0.00  0.00
  WSL1491                 1.00   0.00  0.00  0.00  1.00  0.00  0.00  0.00  0.08  0.00
  WSL1492                 1.00   0.00  0.00  0.00  1.00  0.00  0.00  0.00  0.00  0.00
  WSL1507                 1.00   0.00  0.00  0.00  1.00  0.00  0.00  0.00  0.91  0.00
  WSL1508                 1.00   0.00  0.00  0.00  1.00  0.00  0.00  0.00  0.00  0.00
  WSL1512                 1.00   0.00  0.00  0.00  1.00  0.00  0.00  0.00  1.00  0.00
  WSL1513                 1.00   0.00  0.00  0.00  1.00  0.00  0.00  0.00  0.00  0.00
  WSL1515                 1.00   0.00  0.00  0.00  0.13  0.87  0.00  0.00  0.04  0.00
  WSL1516                 1.00   0.00  0.00  0.00  0.00  1.00  0.00  0.00  1.00  0.00
  WSL1518                 1.00   0.00  0.00  0.00  1.00  0.00  0.00  0.00  0.80  0.00
  WSL1519                 1.00   0.00  0.00  0.00  1.00  0.00  0.00  0.00  0.36  0.00
  WSL1521                 1.00   0.00  0.00  0.00  1.00  0.00  0.00  0.00  0.02  0.00
  WSL1543                 1.00   0.00  0.00  0.00  1.00  0.00  0.00  0.00  0.02  0.00
  WSL1961                 1.00   0.00  0.00  0.00  0.03  0.97  0.00  0.00  0.99  0.00
  WSL1964                 1.00   0.00  0.00  0.00  1.00  0.00  0.00  0.00  0.10  0.00
  WSL2010                 1.00   0.00  0.00  0.00  1.00  0.00  0.00  0.00  0.00  0.00
  WSL2011                 1.00   0.00  0.00  0.00  1.00  0.00  0.00  0.00  0.18  0.00
  WSL2012                 1.00   0.00  0.00  0.00  1.00  0.00  0.00  0.00  0.01  0.00
  WSL2013                 1.00   0.00  0.00  0.00  1.00  0.00  0.00  0.00  0.00  0.00
  WSL2014                 1.00   0.00  0.00  0.00  1.00  0.00  0.00  0.00  0.00  0.00
  WSL2015                 1.00   0.00  0.00  0.00  1.00  0.00  0.00  0.00  0.02  0.00
  WSL2016                 1.00   0.00  0.00  0.00  1.00  0.00  0.00  0.00  0.05  0.00
  WSL2017                 1.00   0.00  0.00  0.00  1.00  0.00  0.00  0.00  0.04  0.00
  WSL2018                 1.00   0.00  0.00  0.00  0.02  0.98  0.00  0.00  0.17  0.00
  WSL2019                 1.00   0.00  0.00  0.00  0.39  0.61  0.00  0.00  0.11  0.00
  WSL2028                 1.00   0.00  0.00  0.00  1.00  0.00  0.00  0.00  0.07  0.00
  WSL2029                 1.00   0.00  0.00  0.00  0.49  0.51  0.00  0.00  0.00  0.00
  WSL2038                 1.00   0.00  0.00  0.00  1.00  0.00  0.00  0.00  0.01  0.00
  WSL2039                 1.00   0.00  0.00  0.00  1.00  0.00  0.00  0.00  0.02  0.00
  WSL2041                 1.00   0.00  0.00  0.00  1.00  0.00  0.00  0.00  0.26  0.00
  WSL2294                 1.00   0.00  0.00  0.00  1.00  0.00  0.00  0.00  0.00  0.00
  WSL2295                 1.00   0.00  0.00  0.00  1.00  0.00  0.00  0.00  0.00  0.00
  WSL2296                 1.00   0.00  0.00  0.00  0.21  0.79  0.00  0.00  0.80  0.00
  WSL2297                 1.00   0.00  0.00  0.00  1.00  0.00  0.00  0.00  0.00  0.00
  WSL2298                 1.00   0.00  0.00  0.00  0.07  0.93  0.00  0.00  0.00  0.00
  WSL2301                 1.00   0.00  0.00  0.00  1.00  0.00  0.00  0.00  0.09  0.00
  WSL2302                 1.00   0.00  0.00  0.00  1.00  0.00  0.00  0.00  0.01  0.00
  WSL2441                 1.00   0.00  0.00  0.00  1.00  0.00  0.00  0.00  0.01  0.00
  WSL2442                 1.00   0.00  0.00  0.00  1.00  0.00  0.00  0.00  0.13  0.00
  WSL2443                 1.00   0.00  0.00  0.00  0.99  0.01  0.00  0.00  0.54  0.00
  WSL2444                 1.00   0.00  0.00  0.00  0.17  0.83  0.00  0.00  0.32  0.00
  WSL2446                 1.00   0.00  0.00  0.00  0.24  0.76  0.00  0.00  0.39  0.00
  WSL2447                 1.00   0.00  0.00  0.00  1.00  0.00  0.00  0.00  0.00  0.00
  WSL2448                 1.00   0.00  0.00  0.00  1.00  0.00  0.00  0.00  0.02  0.00
  WSL2449                 1.00   0.00  0.00  0.00  1.00  0.00  0.00  0.00  0.05  0.00
  WSL2450                 1.00   0.00  0.00  0.00  1.00  0.00  0.00  0.00  0.45  0.00
  WSL2451                 1.00   0.00  0.00  0.00  1.00  0.00  0.00  0.00  0.00  0.00
  WSL2452                 1.00   0.00  0.00  0.00  1.00  0.00  0.00  0.00  0.63  0.00
  WSL2454                 1.00   0.00  0.00  0.00  1.00  0.00  0.00  0.00  0.05  0.00
  WSL2478                 1.00   0.00  0.00  0.00  1.00  0.00  0.00  0.00  0.00  0.00
  WSL2479                 1.00   0.00  0.00  0.00  1.00  0.00  0.00  0.00  0.56  0.00
  WSL2480                 1.00   0.00  0.00  0.00  1.00  0.00  0.00  0.00  0.00  0.00
  WSL2482                 1.00   0.00  0.00  0.00  1.00  0.00  0.00  0.00  0.60  0.00
  WSL2484                 1.00   0.00  0.00  0.00  0.98  0.02  0.00  0.00  0.56  0.00
  WSL2493                 1.00   0.00  0.00  0.00  1.00  0.00  0.00  0.00  0.05  0.00
  WSL2867                 1.00   0.00  0.00  0.00  0.00  1.00  0.00  0.00  0.23  0.00
  WSL2868                 1.00   0.00  0.00  0.00  0.95  0.05  0.00  0.00  0.94  0.00
  WSL348                  1.00   0.00  0.00  0.00  0.98  0.02  0.00  0.00  0.01  0.00
  WSL175                  1.00   0.00  0.00  0.00  0.88  0.12  0.00  0.00  0.01  0.00
  WSL1467                 1.00   0.00  0.00  0.00  1.00  0.00  0.00  0.00  0.13  0.00
  WSL1473                 1.00   0.00  0.00  0.00  1.00  0.00  0.00  0.00  0.06  0.00
  XRpipe                  1.00   0.00  0.00  0.00  0.90  0.10  0.00  0.00  0.04  0.00
  8                       1.00   1.00  0.00  0.00  0.00  0.00  0.00  0.00  0.00  0.00
  19                      1.00   1.00  0.00  0.00  0.00  0.00  0.00  0.00  0.00  0.00
  17                      1.00   1.00  0.00  0.00  0.00  0.00  0.00  0.00  0.00  0.00
  4                       1.00   1.00  0.00  0.00  0.00  0.00  0.00  0.00  0.00  0.00
  2                       1.00   0.00  0.00  0.00  0.00  1.00  0.00  0.00  0.32  0.00
  
  
  *************************
  Conduit Surcharge Summary
  *************************
  
  ----------------------------------------------------------------------------
                                                           Hours        Hours 
                         --------- Hours Full --------   Above Full   Capacity
  Conduit                Both Ends  Upstream  Dnstream   Normal Flow   Limited
  ----------------------------------------------------------------------------
  WSL49                       0.01      0.01      0.01      0.33         0.01
  WSL1472                     0.01      0.01      0.01      0.20         0.01
  WSL1475                     0.01      0.01      0.01      0.19         0.01
  WSL2013                     0.01      0.01      0.01      0.30         0.01
  WSL2294                     0.01      0.01      0.01      0.39         0.01
  WSL2295                     0.01      0.01      0.01      0.81         0.01
  WSL2297                     0.01      0.01      0.01      0.16         0.01
  WSL2298                     0.01      0.01      0.01      0.89         0.01
  WSL2441                     0.01      0.01      0.01      0.27         0.01
  WSL2442                     0.03      0.13      0.03      0.24         0.03
  WSL2443                     0.03      0.03      0.13      0.01         0.01
  WSL2444                     0.01      0.01      0.03      0.01         0.01
  WSL2446                     0.01      0.01      0.01      0.01         0.01
  WSL2447                     0.01      0.01      0.01      0.78         0.01
  WSL2448                     0.01      0.02      0.01      0.25         0.01
  WSL2449                     0.02      0.02      0.02      0.09         0.01
  WSL2450                     0.01      0.01      0.02      0.01         0.01
  WSL2451                     0.01      0.02      0.01      0.45         0.01
  WSL2452                     0.01      0.01      0.02      0.01         0.01
  WSL2478                     0.01      0.01      0.01      0.10         0.01
  WSL2480                     0.01      0.01      0.01      0.19         0.01
  WSL348                      3.02      3.02      3.05      0.01         0.01
  WSL175                      3.05      3.05      3.06      2.35         2.47
  XRpipe                      3.06      3.06      3.44      0.01         0.01
  
  
  ***************
  Pumping Summary
  ***************
  
  ---------------------------------------------------------------------------------------------------------
                                                  Min       Avg       Max     Total     Power    % Time Off
                        Percent   Number of      Flow      Flow      Flow    Volume     Usage    Pump Curve
  Pump                 Utilized   Start-Ups       MLD       MLD       MLD  10^6 ltr     Kw-hr    Low   High
  ---------------------------------------------------------------------------------------------------------
  XR-Pump-1               95.80           3      0.00      7.68      8.12     1.177      7.16    0.0    0.0
  XR-Pump-3               87.46           3      0.00      7.59      8.12     1.065      6.05    0.0    0.0
  XR-Pump-2               91.63           3      0.00      7.66      8.12     1.121      6.99    0.0    0.0
  XR-Pump-4               95.80           3      0.00      7.68      8.12     1.177      7.16    0.0    0.0
  CC-Pump-1               16.67           1      0.00      6.51     17.28     0.164      1.78    0.0    0.0
  CC-Pump-2               54.13           3      0.00      7.29     17.28     0.587      5.42    0.0    0.0
  JK-Pump-1               16.67           1      0.00      5.82     16.30     0.147      1.63    0.0    0.0
  JK-Pump-2               45.83           3      0.00      7.04     17.28     0.481      4.23    0.0    0.0
  
  
  ***************************
  Link Pollutant Load Summary
  ***************************
  
  ------------------------------------------------------------------------------------------
                                 COD         NH3-N            TN            TP            SS
  Link                            kg            kg            kg            kg            kg
  ------------------------------------------------------------------------------------------
  WSL49                      917.553         0.000         0.000         0.000         0.000
  WSL1465                    529.122         0.000         0.000         0.000         0.000
  WSL1472                    882.596         0.000         0.000         0.000         0.000
  WSL1475                    936.540         0.000         0.000         0.000         0.000
  WSL1476                     31.467         0.000         0.000         0.000         0.000
  WSL1477                     29.464         0.000         0.000         0.000         0.000
  WSL1490                    515.167         0.000         0.000         0.000         0.000
  WSL1491                    519.261         0.000         0.000         0.000         0.000
  WSL1492                    525.319         0.000         0.000         0.000         0.000
  WSL1507                      0.507         0.000         0.000         0.000         0.000
  WSL1508                     16.075         0.000         0.000         0.000         0.000
  WSL1512                     16.517         0.000         0.000         0.000         0.000
  WSL1513                     18.168         0.000         0.000         0.000         0.000
  WSL1515                    340.950         0.000         0.000         0.000         0.000
  WSL1516                     30.180         0.000         0.000         0.000         0.000
  WSL1518                     26.760         0.000         0.000         0.000         0.000
  WSL1519                     27.499         0.000         0.000         0.000         0.000
  WSL1521                     28.599         0.000         0.000         0.000         0.000
  WSL1543                     27.058         0.000         0.000         0.000         0.000
  WSL1961                    502.898         0.000         0.000         0.000         0.000
  WSL1964                    510.987         0.000         0.000         0.000         0.000
  WSL2010                    241.975         0.000         0.000         0.000         0.000
  WSL2011                    247.448         0.000         0.000         0.000         0.000
  WSL2012                    253.107         0.000         0.000         0.000         0.000
  WSL2013                    260.431         0.000         0.000         0.000         0.000
  WSL2014                    289.942         0.000         0.000         0.000         0.000
  WSL2015                    291.892         0.000         0.000         0.000         0.000
  WSL2016                    312.435         0.000         0.000         0.000         0.000
  WSL2017                    315.516         0.000         0.000         0.000         0.000
  WSL2018                    332.470         0.000         0.000         0.000         0.000
  WSL2019                    335.025         0.000         0.000         0.000         0.000
  WSL2028                    236.697         0.000         0.000         0.000         0.000
  WSL2029                    321.304         0.000         0.000         0.000         0.000
  WSL2038                     12.346         0.000         0.000         0.000         0.000
  WSL2039                     18.952         0.000         0.000         0.000         0.000
  WSL2041                     15.978         0.000         0.000         0.000         0.000
  WSL2294                    212.355         0.000         0.000         0.000         0.000
  WSL2295                    213.882         0.000         0.000         0.000         0.000
  WSL2296                    223.878         0.000         0.000         0.000         0.000
  WSL2297                    228.363         0.000         0.000         0.000         0.000
  WSL2298                    217.792         0.000         0.000         0.000         0.000
  WSL2301                    230.013         0.000         0.000         0.000         0.000
  WSL2302                    235.718         0.000         0.000         0.000         0.000
  WSL2441                    210.595         0.000         0.000         0.000         0.000
  WSL2442                    161.960         0.000         0.000         0.000         0.000
  WSL2443                    160.162         0.000         0.000         0.000         0.000
  WSL2444                    156.638         0.000         0.000         0.000         0.000
  WSL2446                    154.475         0.000         0.000         0.000         0.000
  WSL2447                    150.729         0.000         0.000         0.000         0.000
  WSL2448                    146.802         0.000         0.000         0.000         0.000
  WSL2449                    106.027         0.000         0.000         0.000         0.000
  WSL2450                    103.285         0.000         0.000         0.000         0.000
  WSL2451                    101.818         0.000         0.000         0.000         0.000
  WSL2452                     99.973         0.000         0.000         0.000         0.000
  WSL2454                     95.397         0.000         0.000         0.000         0.000
  WSL2478                     93.416         0.000         0.000         0.000         0.000
  WSL2479                     84.932         0.000         0.000         0.000         0.000
  WSL2480                     81.616         0.000         0.000         0.000         0.000
  WSL2482                     77.443         0.000         0.000         0.000         0.000
  WSL2484                     70.795         0.000         0.000         0.000         0.000
  WSL2493                    164.879         0.000         0.000         0.000         0.000
  WSL2867                    342.391         0.000         0.000         0.000         0.000
  WSL2868                    346.886         0.000         0.000         0.000         0.000
  WSL348                     777.630         0.000         0.000         0.000         0.000
  WSL175                     784.506         0.000         0.000         0.000         0.000
  WSL1467                    876.933         0.000         0.000         0.000         0.000
  WSL1473                    886.614         0.000         0.000         0.000         0.000
  XRpipe                     797.138         0.000         0.000         0.000         0.000
  8                            0.000         0.000         0.000         0.000         0.000
  19                           0.000         0.000         0.000         0.000         0.000
  17                           0.000         0.000         0.000         0.000         0.000
  4                            0.000         0.000         0.000         0.000         0.000
  2                          953.246         0.000         0.000         0.000         0.000
  XR-Pump-1                  128.698         0.000         0.000         0.000         0.000
  XR-Pump-3                  115.092         0.000         0.000         0.000         0.000
  XR-Pump-2                  119.285         0.000         0.000         0.000         0.000
  XR-Pump-4                  128.698         0.000         0.000         0.000         0.000
  CC-Pump-1                    7.304         0.000         0.000         0.000         0.000
  CC-Pump-2                   42.862         0.000         0.000         0.000         0.000
  JK-Pump-1                    5.374         0.000         0.000         0.000         0.000
  JK-Pump-2                   32.172         0.000         0.000         0.000         0.000
  

  Analysis begun on:  Tue Mar 19 20:21:40 2019
  Analysis ended on:  Tue Mar 19 20:21:41 2019
  Total elapsed time: 00:00:01