
  EPA STORM WATER MANAGEMENT MODEL - VERSION 5.1 (Build 5.3.0.dev0)
  --------------------------------------------------------------

  
  *********************************************************
  NOTE: The summary statistics displayed in this report are
  based on results found at every computational time step,  
  not just on results from each reporting time step.
  *********************************************************
  
  ****************
  Analysis Options
  ****************
  Flow Units ............... MLD
  Process Models:
    Rainfall/Runoff ........ YES
    RDII ................... NO
    Snowmelt ............... NO
    Groundwater ............ NO
    Flow Routing ........... YES
    Ponding Allowed ........ NO
    Water Quality .......... YES
  Infiltration Method ...... GREEN_AMPT
  Flow Routing Method ...... DYNWAVE
  Surcharge Method ......... EXTRAN
  Starting Date ............ 08/28/2015 08:00:00
  Ending Date .............. 08/28/2015 12:00:00
  Antecedent Dry Days ...... 4.0
  Report Time Step ......... 00:01:00
  Wet Time Step ............ 00:01:00
  Dry Time Step ............ 00:01:00
  Routing Time Step ........ 5.00 sec
  Variable Time Step ....... YES
  Maximum Trials ........... 8
  Number of Threads ........ 1
  Head Tolerance ........... 0.001500 m
  
  
  **************************        Volume         Depth
  Runoff Quantity Continuity     hectare-m            mm
  **************************     ---------       -------
  Total Precipitation ......         5.945        21.079
  Evaporation Loss .........         0.000         0.000
  Infiltration Loss ........         2.490         8.826
  Surface Runoff ...........         1.581         5.604
  Final Storage ............         1.879         6.660
  Continuity Error (%) .....        -0.058
  
  
  **************************           COD         NH3-N            TN            TP            SS
  Runoff Quality Continuity             kg            kg            kg            kg            kg
  **************************    ----------    ----------    ----------    ----------    ----------
  Initial Buildup ..........     13074.240         0.000         0.000         0.000         0.000
  Surface Buildup ..........       107.926         0.000         0.000         0.000         0.000
  Wet Deposition ...........         0.000         0.000         0.000         0.000         0.000
  Sweeping Removal .........         0.000         0.000         0.000         0.000         0.000
  Infiltration Loss ........       198.832         0.000         0.000         0.000         0.000
  BMP Removal ..............         0.000         0.000         0.000         0.000         0.000
  Surface Runoff ...........      2959.928         0.000         0.000         0.000         0.000
  Remaining Buildup ........     10020.163         0.000         0.000         0.000         0.000
  Continuity Error (%) .....         0.025         0.000         0.000         0.000         0.000
  
  
  **************************        Volume        Volume
  Flow Routing Continuity        hectare-m      10^6 ltr
  **************************     ---------     ---------
  Dry Weather Inflow .......         0.000         0.000
  Wet Weather Inflow .......         1.576        15.760
  Groundwater Inflow .......         0.000         0.000
  RDII Inflow ..............         0.000         0.000
  External Inflow ..........         0.561         5.611
  External Outflow .........         1.222        12.223
  Flooding Loss ............         0.926         9.257
  Evaporation Loss .........         0.000         0.000
  Exfiltration Loss ........         0.000         0.000
  Initial Stored Volume ....         0.000         0.000
  Final Stored Volume ......         0.111         1.109
  Continuity Error (%) .....        -5.698
  
  
  **************************           COD         NH3-N            TN            TP            SS
  Quality Routing Continuity            kg            kg            kg            kg            kg
  **************************    ----------    ----------    ----------    ----------    ----------
  Dry Weather Inflow .......         0.000         0.000         0.000         0.000         0.000
  Wet Weather Inflow .......      2953.924         0.000         0.000         0.000         0.000
  Groundwater Inflow .......         0.000         0.000         0.000         0.000         0.000
  RDII Inflow ..............         0.000         0.000         0.000         0.000         0.000
  External Inflow ..........       937.060         0.000         0.000         0.000         0.000
  External Outflow .........      1855.717         0.000         0.000         0.000         0.000
  Flooding Loss ............      1680.672         0.000         0.000         0.000         0.000
  Exfiltration Loss ........         0.000         0.000         0.000         0.000         0.000
  Mass Reacted .............         0.000         0.000         0.000         0.000         0.000
  Initial Stored Mass ......         0.000         0.000         0.000         0.000         0.000
  Final Stored Mass ........       135.010         0.000         0.000         0.000         0.000
  Continuity Error (%) .....         5.643         0.000         0.000         0.000         0.000
  
  
  *************************
  Highest Continuity Errors
  *************************
  Node WS02003099 (1.15%)
  
  
  ***************************
  Time-Step Critical Elements
  ***************************
  Link WSL2448 (73.51%)
  Link 8 (22.70%)
  
  
  ********************************
  Highest Flow Instability Indexes
  ********************************
  Link WSL1477 (109)
  Link WSL1516 (103)
  Link WSL1515 (23)
  Link WSL1521 (18)
  Link WSL1476 (18)
  
  
  *************************
  Routing Time Step Summary
  *************************
  Minimum Time Step           :     0.50 sec
  Average Time Step           :     2.04 sec
  Maximum Time Step           :     5.00 sec
  Percent in Steady State     :    -0.00
  Average Iterations per Step :     3.06
  Percent Not Converging      :    10.07
  
  
  ***************************
  Subcatchment Runoff Summary
  ***************************
  
  ------------------------------------------------------------------------------------------------------------------------------
                            Total      Total      Total      Total     Imperv       Perv      Total       Total     Peak  Runoff
                           Precip      Runon       Evap      Infil     Runoff     Runoff     Runoff      Runoff   Runoff   Coeff
  Subcatchment                 mm         mm         mm         mm         mm         mm         mm    10^6 ltr      MLD
  ------------------------------------------------------------------------------------------------------------------------------
  1                         21.08      25.86       0.00      10.10      11.16      11.85      23.02        0.28     5.99   0.490
  2                         21.08       0.00       0.00       8.11       5.06       2.28       7.35        0.25     6.44   0.349
  3                         21.08       0.00       0.00       8.16       5.01       1.93       6.94        0.35     9.04   0.329
  4                         21.08       0.00       0.00       8.07       5.09       2.50       7.60        0.20     5.31   0.360
  5                         21.08      18.06       0.00       9.81       9.38       8.58      17.96        0.31     7.01   0.459
  6                         21.08       0.00       0.00       8.16       5.01       1.96       6.97        0.34     8.81   0.331
  7                         21.08       0.00       0.00       9.06       5.98       0.00       5.98        9.57   188.19   0.284
  8                         21.08       0.00       0.00       8.14       5.03       2.08       7.12        0.30     7.77   0.338
  9                         21.08       7.03       0.00       8.95       6.66       3.69      10.35        0.39     9.42   0.368
  17                        21.08       0.00       0.00       8.12       5.05       2.21       7.26        0.27     6.91   0.344
  18                        21.08       0.00       0.00       8.14       5.03       2.06       7.09        0.31     7.92   0.337
  28                        21.08      23.80       0.00      10.25      10.51       8.68      19.19        0.50    10.70   0.428
  29                        21.08      10.09       0.00       9.03       7.34       4.92      12.25        0.30     6.87   0.393
  30                        21.08      27.77       0.00      10.33      11.81      14.46      26.27        0.24     5.53   0.538
  31                        21.08       0.00       0.00       8.12       5.06       2.24       7.29        0.26     6.72   0.346
  33                        21.08       0.00       0.00       7.87       5.18       3.73       8.91        0.08     2.14   0.423
  34                        21.08      15.79       0.00       9.68       8.81       7.31      16.12        0.33     7.75   0.437
  35                        21.08       0.00       0.00       8.09       5.08       2.38       7.46        0.23     5.91   0.354
  36                        21.08      14.77       0.00       9.78       8.30       4.64      12.94        0.76    16.97   0.361
  39                        21.08       0.00       0.00       8.11       5.06       2.27       7.34        0.25     6.50   0.348
  40                        21.08       3.93       0.00       8.60       5.94       2.95       8.89        0.35     8.62   0.356
  41                        21.08       0.00       0.00       8.02       5.12       2.82       7.94        0.15     4.11   0.377
  42                        21.08       0.00       0.00       8.05       5.11       2.65       7.76        0.18     4.68   0.368
  43                        21.08       0.00       0.00       7.66       5.22       4.86      10.07        0.04     1.05   0.478
  44                        21.08     214.99       0.00      15.78      57.74     127.92     185.66        0.69    13.54   0.786
  45                        21.08       0.00       0.00       7.91       5.17       3.53       8.70        0.09     2.46   0.413
  46                        21.08      12.48       0.00       9.34       7.99       6.07      14.06        0.30     7.08   0.419
  47                        21.08       0.00       0.00       7.92       5.17       3.44       8.60        0.10     2.61   0.408
  48                        21.08       6.03       0.00       8.66       6.54       4.75      11.29        0.18     4.50   0.417
  55                        21.08       9.04       0.00       8.78       7.32       6.96      14.28        0.12     3.00   0.474
  56                        21.08      13.71       0.00       9.44       8.28       6.42      14.70        0.31     7.31   0.422
  57                        21.08       0.00       0.00       8.16       5.01       1.95       6.96        0.35     8.90   0.330
  59                        21.08       0.00       0.00       7.86       5.18       3.77       8.95        0.08     2.08   0.425
  60                        21.08      19.59       0.00       9.46       9.90      12.66      22.56        0.12     2.85   0.555
  61                        21.08       0.00       0.00       8.28       4.73       1.12       5.85        1.05    25.46   0.278
  62                        21.08       0.00       0.00       8.28       4.72       1.10       5.81        1.10    26.61   0.276
  64                        21.08       0.00       0.00       7.94       5.16       3.35       8.51        0.10     2.78   0.404
  
  
  ****************************
  Subcatchment Washoff Summary
  ****************************
  
  ------------------------------------------------------------------------------------------
                                 COD         NH3-N            TN            TP            SS
  Subcatchment                    kg            kg            kg            kg            kg
  ------------------------------------------------------------------------------------------
  1                           48.776         0.000         0.000         0.000         0.000
  2                            0.000         0.000         0.000         0.000         0.000
  3                            0.000         0.000         0.000         0.000         0.000
  4                           40.168         0.000         0.000         0.000         0.000
  5                           94.606         0.000         0.000         0.000         0.000
  6                           64.785         0.000         0.000         0.000         0.000
  7                         1666.604         0.000         0.000         0.000         0.000
  8                           57.564         0.000         0.000         0.000         0.000
  9                          105.678         0.000         0.000         0.000         0.000
  17                          51.489         0.000         0.000         0.000         0.000
  18                          58.611         0.000         0.000         0.000         0.000
  28                         190.741         0.000         0.000         0.000         0.000
  29                          95.195         0.000         0.000         0.000         0.000
  30                          69.866         0.000         0.000         0.000         0.000
  31                          50.184         0.000         0.000         0.000         0.000
  33                          16.967         0.000         0.000         0.000         0.000
  34                         105.270         0.000         0.000         0.000         0.000
  35                          44.411         0.000         0.000         0.000         0.000
  36                         254.173         0.000         0.000         0.000         0.000
  39                          48.649         0.000         0.000         0.000         0.000
  40                          84.148         0.000         0.000         0.000         0.000
  41                          31.500         0.000         0.000         0.000         0.000
  42                          35.670         0.000         0.000         0.000         0.000
  43                           8.493         0.000         0.000         0.000         0.000
  44                         229.879         0.000         0.000         0.000         0.000
  45                          19.335         0.000         0.000         0.000         0.000
  46                          98.081         0.000         0.000         0.000         0.000
  47                          20.485         0.000         0.000         0.000         0.000
  48                          49.530         0.000         0.000         0.000         0.000
  55                          35.859         0.000         0.000         0.000         0.000
  56                         103.005         0.000         0.000         0.000         0.000
  57                          65.394         0.000         0.000         0.000         0.000
  59                          16.512         0.000         0.000         0.000         0.000
  60                          35.330         0.000         0.000         0.000         0.000
  61                         176.201         0.000         0.000         0.000         0.000
  62                         183.672         0.000         0.000         0.000         0.000
  64                          21.755         0.000         0.000         0.000         0.000
  ------------------------------------------------------------------------------------------
  System                    4278.587         0.000         0.000         0.000         0.000
  
  
  ******************
  Node Depth Summary
  ******************
  
  ---------------------------------------------------------------------------------
                                 Average  Maximum  Maximum  Time of Max    Reported
                                   Depth    Depth      HGL   Occurrence   Max Depth
  Node                 Type       Meters   Meters   Meters  days hr:min      Meters
  ---------------------------------------------------------------------------------
  WS01000070           JUNCTION     0.00     0.00     0.00     0  00:00        0.00
  WS01000323           JUNCTION     0.00     0.00     0.00     0  00:00        0.00
  WS01000533           JUNCTION     0.00     0.00     6.86     0  00:00        0.00
  WS01005172           JUNCTION     0.00     0.00     0.00     0  00:00        0.00
  WS01005181           JUNCTION     0.00     0.00     0.00     0  00:00        0.00
  WS01009841           JUNCTION     0.00     0.00     0.00     0  00:00        0.00
  WS02000078           JUNCTION     0.00     0.00     0.00     0  00:00        0.00
  WS02000112           JUNCTION     0.00     0.00     0.00     0  00:00        0.00
  WS02000136           JUNCTION     0.00     0.00     0.00     0  00:00        0.00
  WS02001211           JUNCTION     0.46     0.62     5.46     0  03:05        0.62
  WS02001212           JUNCTION     0.42     0.65     5.45     0  03:05        0.64
  WS02001213           JUNCTION     0.52     0.74     5.44     0  03:05        0.73
  WS02003059           JUNCTION     0.51     0.78     5.43     0  03:03        0.78
  WS02003060           JUNCTION     0.58     0.88     5.43     0  03:04        0.85
  WS02003066           JUNCTION     0.26     0.45     5.75     0  03:05        0.41
  WS02003067           JUNCTION     0.44     0.74     6.06     0  03:05        0.72
  WS02003071           JUNCTION     0.64     0.98     5.38     0  03:03        0.97
  WS02003072           JUNCTION     0.54     0.87     5.24     0  03:02        0.82
  WS02003073           JUNCTION     0.62     1.04     5.28     0  03:02        1.01
  WS02003076           JUNCTION     0.56     0.94     5.17     0  03:02        0.92
  WS02003077           JUNCTION     0.09     0.24     5.25     0  03:02        0.15
  WS02003078           JUNCTION     0.06     0.10     7.00     0  03:04        0.10
  WS02003079           JUNCTION     0.17     0.31     7.22     0  03:04        0.31
  WS02003093           JUNCTION     0.05     0.14     7.48     0  03:01        0.14
  WS02003094           JUNCTION     0.15     0.26     7.48     0  03:01        0.26
  WS02003098           JUNCTION     0.10     0.20     7.37     0  03:03        0.20
  WS02003099           JUNCTION     0.19     0.34     7.38     0  03:02        0.34
  WS02003102           JUNCTION     0.18     0.32     7.35     0  03:03        0.32
  WS02003103           JUNCTION     0.20     0.34     7.31     0  03:04        0.34
  WS02003104           JUNCTION     0.19     0.33     7.29     0  03:04        0.33
  WS02003106           JUNCTION     0.19     0.33     7.26     0  03:04        0.33
  WS02004050           JUNCTION     0.39     0.56     4.78     0  03:06        0.56
  WS02004053           JUNCTION     0.00     0.00     0.00     0  00:00        0.00
  WS02004136           JUNCTION     0.17     0.18     6.91     0  01:17        0.18
  WS02004139           JUNCTION     0.37     0.53     5.49     0  03:06        0.53
  WS02004401           JUNCTION     0.47     0.76     6.76     0  03:03        0.76
  WS02004402           JUNCTION     0.48     0.77     6.73     0  03:03        0.77
  WS02004403           JUNCTION     0.47     0.77     6.70     0  03:03        0.77
  WS02004404           JUNCTION     0.55     0.85     6.70     0  03:03        0.85
  WS02004405           JUNCTION     0.55     0.85     6.69     0  03:03        0.85
  WS02004406           JUNCTION     0.53     0.81     6.64     0  03:03        0.81
  WS02004407           JUNCTION     0.50     0.77     6.57     0  03:04        0.77
  WS02004409           JUNCTION     0.48     0.75     6.52     0  03:03        0.75
  WS02004410           JUNCTION     0.46     0.72     6.44     0  03:03        0.71
  WS02004411           JUNCTION     0.43     0.67     6.35     0  03:03        0.67
  WS02004412           JUNCTION     0.38     0.60     6.24     0  03:02        0.59
  WS02004413           JUNCTION     0.39     0.63     6.10     0  03:05        0.62
  WS02004997           JUNCTION     5.61     6.90     8.51     0  01:45        6.90
  WS02005192           JUNCTION     0.29     0.63     8.50     0  03:01        0.63
  WS02005193           JUNCTION     0.33     0.67     8.49     0  03:01        0.67
  WS02005196           JUNCTION     0.30     0.65     8.50     0  03:01        0.65
  WS02006109           JUNCTION     0.51     0.76     7.38     0  03:01        0.76
  WS02006110           JUNCTION     0.47     0.68     7.28     0  03:01        0.68
  WS02006111           JUNCTION     0.26     0.41     6.99     0  03:01        0.41
  WS02006112           JUNCTION     0.49     0.75     6.87     0  03:03        0.75
  WS02006113           JUNCTION     0.39     0.57     7.16     0  03:01        0.57
  WS02006115           JUNCTION     0.45     0.72     6.82     0  03:03        0.72
  WS02006116           JUNCTION     0.47     0.75     6.79     0  03:03        0.75
  WS02006183           JUNCTION     0.00     0.00     0.00     0  00:00        0.00
  WS02006228           JUNCTION     0.53     0.80     7.45     0  03:02        0.80
  WS02006229           JUNCTION     0.51     0.79     7.48     0  03:01        0.79
  WS02006230           JUNCTION     0.51     0.83     7.58     0  03:01        0.83
  WS02006231           JUNCTION     0.43     0.77     7.67     0  03:01        0.76
  WS02006232           JUNCTION     0.40     0.72     7.75     0  03:01        0.71
  WS02006234           JUNCTION     0.37     0.64     7.80     0  03:01        0.64
  WS02006235           JUNCTION     0.42     0.68     7.85     0  03:01        0.68
  WS02006238           JUNCTION     0.42     0.68     7.86     0  03:01        0.68
  WS02006239           JUNCTION     0.45     0.71     7.92     0  03:01        0.71
  WS02006242           JUNCTION     0.48     0.76     8.06     0  03:01        0.76
  WS02006240           JUNCTION     0.42     0.70     7.99     0  03:01        0.70
  WS02006243           JUNCTION     0.42     0.72     8.14     0  03:01        0.72
  WS02006245           JUNCTION     0.42     0.72     8.21     0  03:01        0.72
  WS02006247           JUNCTION     0.45     0.74     8.25     0  03:01        0.74
  WS02006248           JUNCTION     0.41     0.70     8.29     0  03:01        0.70
  WS02006249           JUNCTION     0.44     0.74     8.34     0  03:01        0.74
  WS02006251           JUNCTION     0.44     0.77     8.44     0  03:01        0.77
  WS02006253           JUNCTION     0.35     0.69     8.49     0  03:01        0.69
  WS02618401           JUNCTION     0.00     0.00     0.00     0  00:00        0.00
  WS8802               JUNCTION     0.00     0.00     4.38     0  00:00        0.00
  WSA1649              JUNCTION     0.00     0.00     0.00     0  00:00        0.00
  WSF200               JUNCTION     0.25     0.48     5.58     0  03:05        0.43
  XR-Inflow            JUNCTION     5.43     6.55     8.36     0  01:45        6.55
  WS02004114           JUNCTION     5.61     7.08     8.68     0  01:46        7.07
  outfall-2            OUTFALL      0.00     0.00     7.00     0  00:00        0.00
  outfall-5            OUTFALL      0.02     0.10     7.77     0  03:01        0.10
  outfall-14           OUTFALL      0.00     0.00     7.66     0  00:00        0.00
  outfall-16           OUTFALL      0.00     0.00     8.39     0  00:00        0.00
  12                   OUTFALL      0.38     0.56     0.56     0  03:06        0.55
  XR-storage           STORAGE      6.70     8.22     8.72     0  01:45        8.22
  CC-storage           STORAGE      0.00     0.00     3.18     0  00:00        0.00
  JK-storage           STORAGE      4.00     4.80     7.80     0  01:43        4.80
  
  
  *******************
  Node Inflow Summary
  *******************
  
  -------------------------------------------------------------------------------------------------
                                  Maximum  Maximum                  Lateral       Total        Flow
                                  Lateral    Total  Time of Max      Inflow      Inflow     Balance
                                   Inflow   Inflow   Occurrence      Volume      Volume       Error
  Node                 Type           MLD      MLD  days hr:min    10^6 ltr    10^6 ltr     Percent
  -------------------------------------------------------------------------------------------------
  WS01000070           JUNCTION      0.00     0.00     0  00:00           0           0       0.000 ltr
  WS01000323           JUNCTION      0.00     0.00     0  00:00           0           0       0.000 ltr
  WS01000533           JUNCTION      0.00     0.00     0  00:00           0           0       0.000 ltr
  WS01005172           JUNCTION      0.00     0.00     0  00:00           0           0       0.000 ltr
  WS01005181           JUNCTION      0.00     0.00     0  00:00           0           0       0.000 ltr
  WS01009841           JUNCTION      0.00     0.00     0  00:00           0           0       0.000 ltr
  WS02000078           JUNCTION      0.00     0.00     0  00:00           0           0       0.000 ltr
  WS02000112           JUNCTION      0.00     0.00     0  00:00           0           0       0.000 ltr
  WS02000136           JUNCTION      0.00     0.00     0  00:00           0           0       0.000 ltr
  WS02001211           JUNCTION      0.25    40.73     0  03:07      0.0407        4.89       0.539
  WS02001212           JUNCTION      0.21    38.90     0  03:08      0.0346        4.89       0.310
  WS02001213           JUNCTION      0.30    43.38     0  03:32      0.0489        4.93       0.433
  WS02003059           JUNCTION      0.23    42.26     0  03:08      0.0378        4.94       0.598
  WS02003060           JUNCTION      0.16   156.69     0  03:05      0.0252        11.3       0.403
  WS02003066           JUNCTION      0.08   133.95     0  03:05      0.0122        6.36       0.204
  WS02003067           JUNCTION      0.26   105.63     0  03:05      0.0395        6.36       0.147
  WS02003071           JUNCTION      0.35   146.39     0  03:09      0.0538        11.3       0.410
  WS02003072           JUNCTION      0.24   144.28     0  03:13      0.0382        11.3       0.265
  WS02003073           JUNCTION      0.07   170.72     0  03:05     0.00978          12       0.224
  WS02003076           JUNCTION      0.72   190.15     0  03:03        0.12        12.1       0.146
  WS02003077           JUNCTION      0.04    16.81     0  03:03      0.0059       0.726       0.133
  WS02003078           JUNCTION      0.03    19.41     0  03:04     0.00419        0.72      -0.088
  WS02003079           JUNCTION      0.04    15.60     0  03:04     0.00561       0.718       0.278
  WS02003093           JUNCTION      0.02     0.13     0  03:01     0.00306     0.00379       2.564
  WS02003094           JUNCTION      9.47     9.47     0  03:01         0.4       0.404       0.887
  WS02003098           JUNCTION      0.02     9.14     0  03:01     0.00293       0.402       0.572
  WS02003099           JUNCTION      0.07     8.91     0  03:03      0.0109       0.411       1.165
  WS02003102           JUNCTION      7.79    15.72     0  03:01       0.305       0.712       0.578
  WS02003103           JUNCTION      0.02    15.56     0  03:03     0.00239        0.71       0.399
  WS02003104           JUNCTION      0.02    15.54     0  03:03     0.00302        0.71       0.334
  WS02003106           JUNCTION      0.05    15.54     0  03:04     0.00728       0.715       0.405
  WS02004050           JUNCTION      0.72   194.52     0  03:04       0.119        12.2       0.611
  WS02004053           JUNCTION      0.00     0.00     0  00:00           0           0       0.000 ltr
  WS02004136           JUNCTION      0.44    32.92     0  01:15      0.0703         4.8       0.060
  WS02004139           JUNCTION      0.38    33.45     0  01:17      0.0619        4.86       0.364
  WS02004401           JUNCTION      0.05    72.10     0  03:03     0.00897        4.84       0.253
  WS02004402           JUNCTION      0.22    72.40     0  03:03      0.0335        4.86       0.232
  WS02004403           JUNCTION      0.23    72.71     0  03:04      0.0349        4.89       0.201
  WS02004404           JUNCTION      0.24    73.07     0  03:04      0.0365        4.91       0.169
  WS02004405           JUNCTION      5.38    77.26     0  03:04       0.213        5.12       0.248
  WS02004406           JUNCTION     10.82    87.09     0  03:04       0.524        5.63       0.352
  WS02004407           JUNCTION      0.11    87.33     0  03:03      0.0171        5.63       0.312
  WS02004409           JUNCTION      7.20    93.67     0  03:04       0.339        5.95       0.261
  WS02004410           JUNCTION      0.15    94.18     0  03:04      0.0226        5.96       0.259
  WS02004411           JUNCTION      0.25    94.72     0  03:04      0.0379        5.98       0.227
  WS02004412           JUNCTION      8.89   102.24     0  03:03       0.358        6.32       0.182
  WS02004413           JUNCTION      0.11   102.51     0  03:04      0.0172        6.33       0.177
  WS02004997           JUNCTION      0.42    42.39     0  01:45      0.0693        4.81       0.799
  WS02005192           JUNCTION      8.99     8.99     0  03:01       0.365       0.365       0.197
  WS02005193           JUNCTION      0.09     9.16     0  03:01      0.0146       0.397       0.648
  WS02005196           JUNCTION      0.12     9.07     0  03:01       0.019       0.384       0.542
  WS02006109           JUNCTION      0.08    63.28     0  03:02      0.0135        4.41       0.324
  WS02006110           JUNCTION      0.08    63.41     0  03:02      0.0132        4.41       0.296
  WS02006111           JUNCTION      0.24    72.24     0  03:02      0.0366         4.8       0.103
  WS02006112           JUNCTION      0.18    72.47     0  03:01      0.0273        4.82       0.270
  WS02006113           JUNCTION      9.18    72.01     0  03:01        0.38        4.77       0.208
  WS02006115           JUNCTION      0.08    72.37     0  03:02      0.0134        4.82       0.276
  WS02006116           JUNCTION      0.24    72.20     0  03:02       0.036        4.85       0.262
  WS02006183           JUNCTION      0.00     0.00     0  00:00           0           0       0.000 ltr
  WS02006228           JUNCTION     13.69    63.20     0  03:01       0.713        4.41       0.241
  WS02006229           JUNCTION      0.13    49.83     0  02:56        0.02         3.7       0.244
  WS02006230           JUNCTION      0.07    49.80     0  02:56      0.0116        3.69       0.258
  WS02006231           JUNCTION      0.13    49.75     0  02:55      0.0205        3.69       0.157
  WS02006232           JUNCTION      6.52    49.79     0  02:55       0.261        3.67       0.151
  WS02006234           JUNCTION      0.14    45.15     0  02:52      0.0216        3.41       0.147
  WS02006235           JUNCTION      0.14    45.19     0  02:52      0.0223         3.4       0.095
  WS02006238           JUNCTION      0.15    45.25     0  02:52      0.0235        3.38       0.129
  WS02006239           JUNCTION      0.11    45.30     0  02:52      0.0174        3.36       0.228
  WS02006242           JUNCTION      0.08    45.42     0  02:51      0.0129        3.35       0.294
  WS02006240           JUNCTION      0.06    45.40     0  02:52     0.00992        3.35       0.220
  WS02006243           JUNCTION      0.17    45.55     0  02:51      0.0269        3.35       0.215
  WS02006245           JUNCTION      0.07    45.54     0  02:51      0.0113        3.33       0.170
  WS02006247           JUNCTION      6.13    45.58     0  02:51       0.303        3.32       0.159
  WS02006248           JUNCTION      0.12    47.07     0  03:01      0.0192        3.11       0.129
  WS02006249           JUNCTION      0.19    46.95     0  03:01      0.0286        3.09       0.200
  WS02006251           JUNCTION      3.06    46.78     0  03:01       0.128        3.07       0.203
  WS02006253           JUNCTION      0.11    43.83     0  03:01      0.0173        2.95       0.091
  WS02618401           JUNCTION      0.00     0.00     0  00:00           0           0       0.000 ltr
  WS8802               JUNCTION      0.00     0.00     0  00:00           0           0       0.000 ltr
  WSA1649              JUNCTION      0.00     0.00     0  00:00           0           0       0.000 ltr
  WSF200               JUNCTION      0.14   121.87     0  03:00      0.0216        6.37       0.011
  XR-Inflow            JUNCTION    205.75   205.75     0  03:01        12.9        12.9       0.181
  WS02004114           JUNCTION      0.57    42.88     0  01:45      0.0916        4.87       0.455
  outfall-2            OUTFALL       0.00     0.00     0  00:00           0           0       0.000 ltr
  outfall-5            OUTFALL       0.00    10.45     0  03:01           0      0.0863       0.000
  outfall-14           OUTFALL       0.00     0.00     0  00:00           0           0       0.000 ltr
  outfall-16           OUTFALL       0.00     0.00     0  00:00           0           0       0.000 ltr
  12                   OUTFALL       0.00   164.98     0  03:06           0        12.1       0.000
  XR-storage           STORAGE       0.00    42.82     0  01:45           0        4.84       0.960
  CC-storage           STORAGE      26.92    26.92     0  03:01        1.34        1.34     -47.200
  JK-storage           STORAGE      27.51    27.51     0  03:01        1.28        1.28       0.002
  
  
  **********************
  Node Surcharge Summary
  **********************
  
  Surcharging occurs when water rises above the top of the highest conduit.
  ---------------------------------------------------------------------
                                               Max. Height   Min. Depth
                                   Hours       Above Crown    Below Rim
  Node                 Type      Surcharged         Meters       Meters
  ---------------------------------------------------------------------
  WS01000070           JUNCTION        4.00          0.000        0.000
  WS01000323           JUNCTION        4.00          0.000        0.000
  WS01000533           JUNCTION        4.00          0.000        2.147
  WS01005172           JUNCTION        4.00          0.000        0.000
  WS01005181           JUNCTION        4.00          0.000        0.000
  WS01009841           JUNCTION        4.00          0.000        0.000
  WS02000078           JUNCTION        4.00          0.000        0.000
  WS02000112           JUNCTION        4.00          0.000        0.000
  WS02000136           JUNCTION        4.00          0.000        0.000
  WS02004053           JUNCTION        4.00          0.000        0.000
  WS02004997           JUNCTION        3.88          6.000        0.000
  WS02005192           JUNCTION        0.07          0.035        2.784
  WS02005193           JUNCTION        0.18          0.074        2.543
  WS02005196           JUNCTION        0.11          0.051        2.655
  WS02006183           JUNCTION        4.00          0.000        0.000
  WS02006228           JUNCTION        0.05          0.004        2.227
  WS02006231           JUNCTION        0.42          0.066        1.477
  WS02006232           JUNCTION        0.09          0.015        1.474
  WS02006239           JUNCTION        0.09          0.015        1.314
  WS02006242           JUNCTION        0.40          0.062        0.787
  WS02006243           JUNCTION        0.11          0.020        0.760
  WS02006245           JUNCTION        0.11          0.018        0.837
  WS02006247           JUNCTION        0.28          0.042        0.718
  WS02006249           JUNCTION        0.18          0.038        0.350
  WS02006251           JUNCTION        0.25          0.073        1.437
  WS02618401           JUNCTION        4.00          0.000        0.000
  WS8802               JUNCTION        4.00          0.000        4.942
  WSA1649              JUNCTION        4.00          0.000        0.000
  XR-Inflow            JUNCTION        3.87          5.650        0.000
  WS02004114           JUNCTION        3.88          6.179        0.336
  XR-storage           STORAGE         3.96          7.320        0.000
  
  
  *********************
  Node Flooding Summary
  *********************
  
  Flooding refers to all water that overflows a node, whether it ponds or not.
  --------------------------------------------------------------------------
                                                             Total   Maximum
                                 Maximum   Time of Max       Flood    Ponded
                        Hours       Rate    Occurrence      Volume     Depth
  Node                 Flooded       MLD   days hr:min    10^6 ltr    Meters
  --------------------------------------------------------------------------
  WS02004997              0.01      3.37      0  01:46       0.000     0.000
  XR-Inflow               2.23    174.19      0  03:01       8.114     0.000
  XR-storage              0.01      6.87      0  01:45       0.000     0.500
  JK-storage              2.28     27.51      0  03:01       1.143     0.000
  
  
  **********************
  Storage Volume Summary
  **********************
  
  --------------------------------------------------------------------------------------------------
                         Average     Avg  Evap Exfil       Maximum     Max    Time of Max    Maximum
                          Volume    Pcnt  Pcnt  Pcnt        Volume    Pcnt     Occurrence    Outflow
  Storage Unit           1000 m3    Full  Loss  Loss       1000 m3    Full    days hr:min        MLD
  --------------------------------------------------------------------------------------------------
  XR-storage               0.054      86     0     0         0.063     100       0  01:45      32.48
  CC-storage               0.000       0     0     0         0.000       0       0  00:00      34.56
  JK-storage               0.113      83     0     0         0.136     100       0  01:43       0.00
  
  
  ***********************
  Outfall Loading Summary
  ***********************
  
  ---------------------------------------------------------------------------------------------------------------------------------
                         Flow       Avg       Max       Total         Total         Total         Total         Total         Total
                         Freq      Flow      Flow      Volume           COD         NH3-N            TN            TP            SS
  Outfall Node           Pcnt       MLD       MLD    10^6 ltr            kg            kg            kg            kg            kg
  ---------------------------------------------------------------------------------------------------------------------------------
  outfall-2              0.00      0.00      0.00       0.000         0.000         0.000         0.000         0.000         0.000
  outfall-5             26.74      5.36     10.45       0.086         6.482         0.000         0.000         0.000         0.000
  outfall-14             0.00      0.00      0.00       0.000         0.000         0.000         0.000         0.000         0.000
  outfall-16             0.00      0.00      0.00       0.000         0.000         0.000         0.000         0.000         0.000
  12                    99.99     91.11    164.98      12.137      1849.360         0.000         0.000         0.000         0.000
  ---------------------------------------------------------------------------------------------------------------------------------
  System                25.35     96.47    171.47      12.223      1855.842         0.000         0.000         0.000         0.000
  
  
  ********************
  Link Flow Summary
  ********************
  
  -----------------------------------------------------------------------------
                                 Maximum  Time of Max   Maximum    Max/    Max/
                                  |Flow|   Occurrence   |Veloc|    Full    Full
  Link                 Type          MLD  days hr:min     m/sec    Flow   Depth
  -----------------------------------------------------------------------------
  WSL49                CONDUIT    189.43     0  03:03      2.62    2.36    0.79
  WSL1465              CONDUIT     43.80     0  03:27      1.65    0.40    0.82
  WSL1472              CONDUIT    144.07     0  03:13      2.10    1.64    0.75
  WSL1475              CONDUIT    193.81     0  03:04      3.21    2.07    0.50
  WSL1476              CONDUIT     28.49     0  03:02      1.00    0.14    0.65
  WSL1477              CONDUIT     19.39     0  03:04      2.66    0.77    0.34
  WSL1490              CONDUIT     38.70     0  03:08      1.38    0.63    0.63
  WSL1491              CONDUIT     43.10     0  03:32      1.44    0.25    0.69
  WSL1492              CONDUIT     42.04     0  03:08      1.38    0.65    0.74
  WSL1507              CONDUIT      0.20     0  03:02      0.13    0.00    0.25
  WSL1508              CONDUIT      9.12     0  03:01      0.91    0.26    0.28
  WSL1512              CONDUIT      8.85     0  03:03      0.61    0.06    0.27
  WSL1513              CONDUIT      9.04     0  03:04      0.54    0.53    0.41
  WSL1515              CONDUIT    133.88     0  03:05      3.01    1.31    0.47
  WSL1516              CONDUIT     16.78     0  03:03      4.59    0.06    0.28
  WSL1518              CONDUIT     15.54     0  03:03      0.92    0.30    0.41
  WSL1519              CONDUIT     15.50     0  03:04      0.91    0.39    0.42
  WSL1521              CONDUIT     15.58     0  03:04      0.97    0.45    0.40
  WSL1543              CONDUIT     15.52     0  03:03      0.89    0.48    0.42
  WSL1961              CONDUIT     33.07     0  01:17      3.18    0.07    0.35
  WSL1964              CONDUIT     40.50     0  03:07      1.38    0.22    0.47
  WSL2010              CONDUIT     72.53     0  03:04      1.32    0.93    0.77
  WSL2011              CONDUIT     72.87     0  03:04      1.26    0.47    0.81
  WSL2012              CONDUIT     73.14     0  03:04      1.20    1.11    0.85
  WSL2013              CONDUIT     77.34     0  03:04      1.29    1.92    0.83
  WSL2014              CONDUIT     87.24     0  03:03      1.51    1.39    0.79
  WSL2015              CONDUIT     87.51     0  03:04      1.59    1.17    0.76
  WSL2016              CONDUIT     94.06     0  03:04      1.78    1.08    0.73
  WSL2017              CONDUIT     94.52     0  03:04      1.92    1.15    0.69
  WSL2018              CONDUIT    102.42     0  03:04      2.43    0.61    0.61
  WSL2019              CONDUIT    105.43     0  03:05      2.36    0.62    0.68
  WSL2028              CONDUIT     72.22     0  03:03      1.32    0.77    0.76
  WSL2029              CONDUIT     95.17     0  03:04      2.16    1.20    0.63
  WSL2038              CONDUIT      8.97     0  03:01      0.37    0.45    1.00
  WSL2039              CONDUIT      9.17     0  03:01      0.43    0.47    1.00
  WSL2041              CONDUIT      9.08     0  03:01      0.37    0.45    1.00
  WSL2294              CONDUIT     63.34     0  03:02      1.55    2.13    0.90
  WSL2295              CONDUIT     63.53     0  03:02      1.77    2.86    0.78
  WSL2296              CONDUIT     72.32     0  03:01      2.16    0.41    0.72
  WSL2297              CONDUIT     72.29     0  03:02      1.37    1.39    0.73
  WSL2298              CONDUIT     72.05     0  03:02      2.59    3.32    0.61
  WSL2301              CONDUIT     72.01     0  03:02      1.38    0.66    0.74
  WSL2302              CONDUIT     72.04     0  03:03      1.34    0.88    0.76
  WSL2441              CONDUIT     63.20     0  03:02      1.47    1.62    0.98
  WSL2442              CONDUIT     49.71     0  02:56      1.50    1.27    1.00
  WSL2443              CONDUIT     49.73     0  02:56      1.50    0.78    1.00
  WSL2444              CONDUIT     49.63     0  02:55      1.72    0.79    1.00
  WSL2446              CONDUIT     45.08     0  03:13      1.73    0.77    0.96
  WSL2447              CONDUIT     45.02     0  02:52      1.65    2.32    0.94
  WSL2448              CONDUIT     45.06     0  02:52      1.53    1.27    0.97
  WSL2449              CONDUIT     45.11     0  02:52      1.47    1.57    0.99
  WSL2450              CONDUIT     45.20     0  02:52      1.44    0.94    1.00
  WSL2451              CONDUIT     45.34     0  02:52      1.40    2.96    1.00
  WSL2452              CONDUIT     45.35     0  02:51      1.39    0.87    1.00
  WSL2454              CONDUIT     45.40     0  02:51      1.45    1.06    1.00
  WSL2478              CONDUIT     45.47     0  02:51      1.43    1.61    1.00
  WSL2479              CONDUIT     41.49     0  02:50      1.34    0.79    1.00
  WSL2480              CONDUIT     46.97     0  03:01      1.41    2.17    1.00
  WSL2482              CONDUIT     46.79     0  03:01      1.41    1.22    1.00
  WSL2484              CONDUIT     43.81     0  03:01      1.43    0.62    0.99
  WSL2493              CONDUIT     49.75     0  02:56      1.16    0.84    0.99
  WSL2867              CONDUIT    121.75     0  03:00      4.13    0.25    0.37
  WSL2868              CONDUIT    117.69     0  03:05      2.22    0.22    0.54
  WSL348               CONDUIT     41.96     0  01:45      1.86    0.38    1.00
  WSL175               CONDUIT     42.31     0  01:45      2.30    1.43    1.00
  WSL1467              CONDUIT    146.09     0  03:09      1.97    0.78    0.76
  WSL1473              CONDUIT    155.04     0  03:05      2.30    0.64    0.78
  XRpipe               CONDUIT     42.82     0  01:45      2.53    0.11    1.00
  8                    CONDUIT     10.45     0  03:01      4.90    0.14    0.25
  19                   CONDUIT      0.00     0  00:00      0.00    0.00    0.00
  17                   CONDUIT      0.00     0  00:00      0.00    0.00    0.00
  4                    CONDUIT      0.00     0  00:00      0.00    0.00    0.00
  2                    CONDUIT    164.98     0  03:06      4.25    0.60    0.56
  XR-Pump-1            PUMP         8.12     0  00:08              1.00
  XR-Pump-3            PUMP         8.12     0  00:09              1.00
  XR-Pump-2            PUMP         8.12     0  00:09              1.00
  XR-Pump-4            PUMP         8.12     0  01:15              1.00
  CC-Pump-1            PUMP        17.28     0  02:46              1.00
  CC-Pump-2            PUMP        17.28     0  02:46              1.00
  JK-Pump-1            PUMP         0.00     0  00:00              0.00
  JK-Pump-2            PUMP         0.00     0  00:00              0.00
  
  
  ***************************
  Flow Classification Summary
  ***************************
  
  -------------------------------------------------------------------------------------
                      Adjusted    ---------- Fraction of Time in Flow Class ---------- 
                       /Actual         Up    Down  Sub   Sup   Up    Down  Norm  Inlet 
  Conduit               Length    Dry  Dry   Dry   Crit  Crit  Crit  Crit  Ltd   Ctrl  
  -------------------------------------------------------------------------------------
  WSL49                   1.00   0.00  0.00  0.00  0.98  0.02  0.00  0.00  0.00  0.00
  WSL1465                 1.00   0.00  0.00  0.00  1.00  0.00  0.00  0.00  0.05  0.00
  WSL1472                 1.00   0.00  0.00  0.00  1.00  0.00  0.00  0.00  0.00  0.00
  WSL1475                 1.00   0.00  0.00  0.00  0.17  0.83  0.00  0.00  0.01  0.00
  WSL1476                 1.00   0.00  0.00  0.00  1.00  0.00  0.00  0.00  0.99  0.00
  WSL1477                 1.00   0.00  0.00  0.00  0.00  1.00  0.00  0.00  0.32  0.00
  WSL1490                 1.00   0.00  0.00  0.00  1.00  0.00  0.00  0.00  0.01  0.00
  WSL1491                 1.00   0.00  0.00  0.00  1.00  0.00  0.00  0.00  0.04  0.00
  WSL1492                 1.00   0.00  0.00  0.00  1.00  0.00  0.00  0.00  0.00  0.00
  WSL1507                 1.00   0.00  0.00  0.00  1.00  0.00  0.00  0.00  0.48  0.00
  WSL1508                 1.00   0.00  0.00  0.00  1.00  0.00  0.00  0.00  0.00  0.00
  WSL1512                 1.00   0.00  0.00  0.00  1.00  0.00  0.00  0.00  0.91  0.00
  WSL1513                 1.00   0.00  0.00  0.00  1.00  0.00  0.00  0.00  0.00  0.00
  WSL1515                 1.00   0.00  0.00  0.00  0.11  0.89  0.00  0.00  0.04  0.00
  WSL1516                 1.00   0.00  0.00  0.00  0.00  1.00  0.00  0.00  1.00  0.00
  WSL1518                 1.00   0.00  0.00  0.00  1.00  0.00  0.00  0.00  0.43  0.00
  WSL1519                 1.00   0.00  0.00  0.00  1.00  0.00  0.00  0.00  0.33  0.00
  WSL1521                 1.00   0.00  0.00  0.00  1.00  0.00  0.00  0.00  0.02  0.00
  WSL1543                 1.00   0.00  0.00  0.00  1.00  0.00  0.00  0.00  0.02  0.00
  WSL1961                 1.00   0.00  0.00  0.00  0.02  0.98  0.00  0.00  0.97  0.00
  WSL1964                 1.00   0.00  0.00  0.00  1.00  0.00  0.00  0.00  0.05  0.00
  WSL2010                 1.00   0.00  0.00  0.00  1.00  0.00  0.00  0.00  0.00  0.00
  WSL2011                 1.00   0.00  0.00  0.00  1.00  0.00  0.00  0.00  0.07  0.00
  WSL2012                 1.00   0.00  0.00  0.00  1.00  0.00  0.00  0.00  0.00  0.00
  WSL2013                 1.00   0.00  0.00  0.00  1.00  0.00  0.00  0.00  0.00  0.00
  WSL2014                 1.00   0.00  0.00  0.00  1.00  0.00  0.00  0.00  0.00  0.00
  WSL2015                 1.00   0.00  0.00  0.00  1.00  0.00  0.00  0.00  0.02  0.00
  WSL2016                 1.00   0.00  0.00  0.00  1.00  0.00  0.00  0.00  0.01  0.00
  WSL2017                 1.00   0.00  0.00  0.00  1.00  0.00  0.00  0.00  0.04  0.00
  WSL2018                 1.00   0.00  0.00  0.00  0.01  0.99  0.00  0.00  0.01  0.00
  WSL2019                 1.00   0.00  0.00  0.00  0.58  0.42  0.00  0.00  0.09  0.00
  WSL2028                 1.00   0.00  0.00  0.00  1.00  0.00  0.00  0.00  0.06  0.00
  WSL2029                 1.00   0.00  0.00  0.00  0.62  0.38  0.00  0.00  0.00  0.00
  WSL2038                 1.00   0.00  0.00  0.00  1.00  0.00  0.00  0.00  0.00  0.00
  WSL2039                 1.00   0.00  0.00  0.00  1.00  0.00  0.00  0.00  0.00  0.00
  WSL2041                 1.00   0.00  0.00  0.00  1.00  0.00  0.00  0.00  0.00  0.00
  WSL2294                 1.00   0.00  0.00  0.00  1.00  0.00  0.00  0.00  0.00  0.00
  WSL2295                 1.00   0.00  0.00  0.00  1.00  0.00  0.00  0.00  0.00  0.00
  WSL2296                 1.00   0.00  0.00  0.00  0.35  0.65  0.00  0.00  0.48  0.00
  WSL2297                 1.00   0.00  0.00  0.00  1.00  0.00  0.00  0.00  0.00  0.00
  WSL2298                 1.00   0.00  0.00  0.00  0.03  0.97  0.00  0.00  0.00  0.00
  WSL2301                 1.00   0.00  0.00  0.00  1.00  0.00  0.00  0.00  0.06  0.00
  WSL2302                 1.00   0.00  0.00  0.00  1.00  0.00  0.00  0.00  0.01  0.00
  WSL2441                 1.00   0.00  0.00  0.00  1.00  0.00  0.00  0.00  0.00  0.00
  WSL2442                 1.00   0.00  0.00  0.00  1.00  0.00  0.00  0.00  0.01  0.00
  WSL2443                 1.00   0.00  0.00  0.00  1.00  0.00  0.00  0.00  0.02  0.00
  WSL2444                 1.00   0.00  0.00  0.00  0.53  0.47  0.00  0.00  0.01  0.00
  WSL2446                 1.00   0.00  0.00  0.00  0.48  0.52  0.00  0.00  0.24  0.00
  WSL2447                 1.00   0.00  0.00  0.00  1.00  0.00  0.00  0.00  0.00  0.00
  WSL2448                 1.00   0.00  0.00  0.00  1.00  0.00  0.00  0.00  0.00  0.00
  WSL2449                 1.00   0.00  0.00  0.00  1.00  0.00  0.00  0.00  0.02  0.00
  WSL2450                 1.00   0.00  0.00  0.00  1.00  0.00  0.00  0.00  0.02  0.00
  WSL2451                 1.00   0.00  0.00  0.00  1.00  0.00  0.00  0.00  0.00  0.00
  WSL2452                 1.00   0.00  0.00  0.00  1.00  0.00  0.00  0.00  0.30  0.00
  WSL2454                 1.00   0.00  0.00  0.00  1.00  0.00  0.00  0.00  0.02  0.00
  WSL2478                 1.00   0.00  0.00  0.00  1.00  0.00  0.00  0.00  0.00  0.00
  WSL2479                 1.00   0.00  0.00  0.00  1.00  0.00  0.00  0.00  0.01  0.00
  WSL2480                 1.00   0.00  0.00  0.00  1.00  0.00  0.00  0.00  0.00  0.00
  WSL2482                 1.00   0.00  0.00  0.00  1.00  0.00  0.00  0.00  0.00  0.00
  WSL2484                 1.00   0.00  0.00  0.00  1.00  0.00  0.00  0.00  0.00  0.00
  WSL2493                 1.00   0.00  0.00  0.00  1.00  0.00  0.00  0.00  0.04  0.00
  WSL2867                 1.00   0.00  0.00  0.00  0.00  1.00  0.00  0.00  0.18  0.00
  WSL2868                 1.00   0.00  0.00  0.00  0.97  0.03  0.00  0.00  0.69  0.00
  WSL348                  1.00   0.00  0.00  0.00  1.00  0.00  0.00  0.00  0.01  0.00
  WSL175                  1.00   0.00  0.00  0.00  1.00  0.00  0.00  0.00  0.00  0.00
  WSL1467                 1.00   0.00  0.00  0.00  1.00  0.00  0.00  0.00  0.05  0.00
  WSL1473                 1.00   0.00  0.00  0.00  1.00  0.00  0.00  0.00  0.05  0.00
  XRpipe                  1.00   0.00  0.00  0.00  1.00  0.00  0.00  0.00  0.00  0.00
  8                       1.00   0.73  0.00  0.00  0.00  0.27  0.00  0.00  0.03  0.00
  19                      1.00   1.00  0.00  0.00  0.00  0.00  0.00  0.00  0.00  0.00
  17                      1.00   1.00  0.00  0.00  0.00  0.00  0.00  0.00  0.00  0.00
  4                       1.00   1.00  0.00  0.00  0.00  0.00  0.00  0.00  0.00  0.00
  2                       1.00   0.00  0.00  0.00  0.00  1.00  0.00  0.00  0.18  0.00
  
  
  *************************
  Conduit Surcharge Summary
  *************************
  
  ----------------------------------------------------------------------------
                                                           Hours        Hours 
                         --------- Hours Full --------   Above Full   Capacity
  Conduit                Both Ends  Upstream  Dnstream   Normal Flow   Limited
  ----------------------------------------------------------------------------
  WSL49                       0.01      0.01      0.01      1.62         0.01
  WSL1472                     0.01      0.01      0.01      1.27         0.01
  WSL1475                     0.01      0.01      0.01      1.28         0.01
  WSL1476                     0.01      0.01      0.34      0.01         0.01
  WSL1515                     0.01      0.01      0.01      0.16         0.01
  WSL2012                     0.01      0.01      0.01      0.41         0.01
  WSL2013                     0.01      0.01      0.01      1.34         0.01
  WSL2014                     0.01      0.01      0.01      0.76         0.01
  WSL2015                     0.01      0.01      0.01      0.47         0.01
  WSL2016                     0.01      0.01      0.01      0.23         0.01
  WSL2017                     0.01      0.01      0.01      0.37         0.01
  WSL2029                     0.01      0.01      0.01      0.48         0.01
  WSL2038                     0.07      0.07      0.11      0.01         0.01
  WSL2039                     0.18      0.18      0.22      0.01         0.01
  WSL2041                     0.11      0.11      0.18      0.01         0.01
  WSL2294                     0.01      0.01      0.01      1.67         0.01
  WSL2295                     0.01      0.01      0.01      2.05         0.01
  WSL2297                     0.01      0.01      0.01      0.79         0.01
  WSL2298                     0.01      0.01      0.01      2.15         0.01
  WSL2441                     0.01      0.05      0.01      1.11         0.01
  WSL2442                     0.55      0.60      0.55      0.80         0.55
  WSL2443                     0.42      0.42      0.60      0.01         0.01
  WSL2444                     0.09      0.09      0.42      0.01         0.01
  WSL2446                     0.01      0.01      0.09      0.01         0.01
  WSL2447                     0.01      0.01      0.01      2.02         0.01
  WSL2448                     0.01      0.01      0.01      0.81         0.01
  WSL2449                     0.01      0.09      0.01      1.15         0.01
  WSL2450                     0.01      0.01      0.09      0.01         0.01
  WSL2451                     0.01      0.40      0.01      2.25         0.01
  WSL2452                     0.11      0.11      0.40      0.01         0.01
  WSL2454                     0.11      0.11      0.11      0.42         0.03
  WSL2478                     0.11      0.28      0.11      1.14         0.11
  WSL2479                     0.01      0.01      0.28      0.01         0.01
  WSL2480                     0.01      0.18      0.01      1.45         0.01
  WSL2482                     0.18      0.25      0.18      0.52         0.18
  WSL2484                     0.01      0.01      0.25      0.01         0.01
  WSL2493                     0.01      0.01      0.05      0.01         0.01
  WSL348                      3.87      3.87      3.88      0.01         0.01
  WSL175                      3.88      3.88      3.88      2.56         2.65
  XRpipe                      3.88      3.88      3.96      0.01         0.01
  
  
  ***************
  Pumping Summary
  ***************
  
  ---------------------------------------------------------------------------------------------------------
                                                  Min       Avg       Max     Total     Power    % Time Off
                        Percent   Number of      Flow      Flow      Flow    Volume     Usage    Pump Curve
  Pump                 Utilized   Start-Ups       MLD       MLD       MLD  10^6 ltr     Kw-hr    Low   High
  ---------------------------------------------------------------------------------------------------------
  XR-Pump-1               96.39           1      0.00      8.12      8.12     1.305      6.72    0.0   58.0
  XR-Pump-3               91.45          19      0.00      8.12      8.12     1.238      6.22    0.0   61.1
  XR-Pump-2               96.27           1      0.00      8.12      8.12     1.303      6.71    0.0   58.0
  XR-Pump-4               65.71          11      0.00      8.12      8.12     0.889      3.63    0.0   85.0
  CC-Pump-1              100.00           1      0.00     10.08     17.28     1.268     17.25    0.0    0.0
  CC-Pump-2              100.00           1      0.00     10.08     17.28     1.268     17.25    0.0    0.0
  JK-Pump-1                0.00           0      0.00      0.00      0.00     0.000      0.00    0.0    0.0
  JK-Pump-2                0.00           0      0.00      0.00      0.00     0.000      0.00    0.0    0.0
  
  
  ***************************
  Link Pollutant Load Summary
  ***************************
  
  ------------------------------------------------------------------------------------------
                                 COD         NH3-N            TN            TP            SS
  Link                            kg            kg            kg            kg            kg
  ------------------------------------------------------------------------------------------
  WSL49                     1822.227         0.000         0.000         0.000         0.000
  WSL1465                    774.034         0.000         0.000         0.000         0.000
  WSL1472                   1651.867         0.000         0.000         0.000         0.000
  WSL1475                   1839.844         0.000         0.000         0.000         0.000
  WSL1476                    169.910         0.000         0.000         0.000         0.000
  WSL1477                    168.018         0.000         0.000         0.000         0.000
  WSL1490                    763.015         0.000         0.000         0.000         0.000
  WSL1491                    766.744         0.000         0.000         0.000         0.000
  WSL1492                    771.834         0.000         0.000         0.000         0.000
  WSL1507                      1.099         0.000         0.000         0.000         0.000
  WSL1508                    107.388         0.000         0.000         0.000         0.000
  WSL1512                    107.493         0.000         0.000         0.000         0.000
  WSL1513                    108.557         0.000         0.000         0.000         0.000
  WSL1515                    873.219         0.000         0.000         0.000         0.000
  WSL1516                    168.830         0.000         0.000         0.000         0.000
  WSL1518                    166.268         0.000         0.000         0.000         0.000
  WSL1519                    166.511         0.000         0.000         0.000         0.000
  WSL1521                    167.355         0.000         0.000         0.000         0.000
  WSL1543                    166.297         0.000         0.000         0.000         0.000
  WSL1961                    751.872         0.000         0.000         0.000         0.000
  WSL1964                    759.963         0.000         0.000         0.000         0.000
  WSL2010                    453.928         0.000         0.000         0.000         0.000
  WSL2011                    458.829         0.000         0.000         0.000         0.000
  WSL2012                    464.088         0.000         0.000         0.000         0.000
  WSL2013                    504.505         0.000         0.000         0.000         0.000
  WSL2014                    695.691         0.000         0.000         0.000         0.000
  WSL2015                    696.365         0.000         0.000         0.000         0.000
  WSL2016                    794.476         0.000         0.000         0.000         0.000
  WSL2017                    796.226         0.000         0.000         0.000         0.000
  WSL2018                    866.396         0.000         0.000         0.000         0.000
  WSL2019                    867.805         0.000         0.000         0.000         0.000
  WSL2028                    449.647         0.000         0.000         0.000         0.000
  WSL2029                    800.725         0.000         0.000         0.000         0.000
  WSL2038                     68.464         0.000         0.000         0.000         0.000
  WSL2039                     73.698         0.000         0.000         0.000         0.000
  WSL2041                     71.553         0.000         0.000         0.000         0.000
  WSL2294                    431.532         0.000         0.000         0.000         0.000
  WSL2295                    432.309         0.000         0.000         0.000         0.000
  WSL2296                    441.185         0.000         0.000         0.000         0.000
  WSL2297                    443.960         0.000         0.000         0.000         0.000
  WSL2298                    435.654         0.000         0.000         0.000         0.000
  WSL2301                    444.896         0.000         0.000         0.000         0.000
  WSL2302                    449.405         0.000         0.000         0.000         0.000
  WSL2441                    430.953         0.000         0.000         0.000         0.000
  WSL2442                    195.515         0.000         0.000         0.000         0.000
  WSL2443                    194.095         0.000         0.000         0.000         0.000
  WSL2444                    190.976         0.000         0.000         0.000         0.000
  WSL2446                    189.004         0.000         0.000         0.000         0.000
  WSL2447                    185.723         0.000         0.000         0.000         0.000
  WSL2448                    182.222         0.000         0.000         0.000         0.000
  WSL2449                    178.502         0.000         0.000         0.000         0.000
  WSL2450                    176.023         0.000         0.000         0.000         0.000
  WSL2451                    174.761         0.000         0.000         0.000         0.000
  WSL2452                    173.181         0.000         0.000         0.000         0.000
  WSL2454                    169.130         0.000         0.000         0.000         0.000
  WSL2478                    167.611         0.000         0.000         0.000         0.000
  WSL2479                    115.156         0.000         0.000         0.000         0.000
  WSL2480                    118.503         0.000         0.000         0.000         0.000
  WSL2482                    113.874         0.000         0.000         0.000         0.000
  WSL2484                     76.539         0.000         0.000         0.000         0.000
  WSL2493                    198.362         0.000         0.000         0.000         0.000
  WSL2867                    873.565         0.000         0.000         0.000         0.000
  WSL2868                    877.161         0.000         0.000         0.000         0.000
  WSL348                     736.710         0.000         0.000         0.000         0.000
  WSL175                     743.094         0.000         0.000         0.000         0.000
  WSL1467                   1649.240         0.000         0.000         0.000         0.000
  WSL1473                   1654.196         0.000         0.000         0.000         0.000
  XRpipe                     756.112         0.000         0.000         0.000         0.000
  8                            6.482         0.000         0.000         0.000         0.000
  19                           0.000         0.000         0.000         0.000         0.000
  17                           0.000         0.000         0.000         0.000         0.000
  4                            0.000         0.000         0.000         0.000         0.000
  2                         1849.360         0.000         0.000         0.000         0.000
  XR-Pump-1                  205.088         0.000         0.000         0.000         0.000
  XR-Pump-3                  193.915         0.000         0.000         0.000         0.000
  XR-Pump-2                  204.809         0.000         0.000         0.000         0.000
  XR-Pump-4                  136.426         0.000         0.000         0.000         0.000
  CC-Pump-1                    0.000         0.000         0.000         0.000         0.000
  CC-Pump-2                    0.000         0.000         0.000         0.000         0.000
  JK-Pump-1                    0.000         0.000         0.000         0.000         0.000
  JK-Pump-2                    0.000         0.000         0.000         0.000         0.000
  

  Analysis begun on:  Thu Jan  2 20:34:46 2020
  Analysis ended on:  Thu Jan  2 20:34:46 2020
  Total elapsed time: < 1 sec