
  EPA STORM WATER MANAGEMENT MODEL - VERSION 5.1 (Build 5.3.0.dev0)
  --------------------------------------------------------------

  
  *********************************************************
  NOTE: The summary statistics displayed in this report are
  based on results found at every computational time step,  
  not just on results from each reporting time step.
  *********************************************************
  
  ****************
  Analysis Options
  ****************
  Flow Units ............... MLD
  Process Models:
    Rainfall/Runoff ........ YES
    RDII ................... NO
    Snowmelt ............... NO
    Groundwater ............ NO
    Flow Routing ........... YES
    Ponding Allowed ........ NO
    Water Quality .......... YES
  Infiltration Method ...... GREEN_AMPT
  Flow Routing Method ...... DYNWAVE
  Surcharge Method ......... EXTRAN
  Starting Date ............ 08/28/2015 08:00:00
  Ending Date .............. 08/28/2015 12:00:00
  Antecedent Dry Days ...... 4.0
  Report Time Step ......... 00:01:00
  Wet Time Step ............ 00:01:00
  Dry Time Step ............ 00:01:00
  Routing Time Step ........ 5.00 sec
  Variable Time Step ....... YES
  Maximum Trials ........... 8
  Number of Threads ........ 1
  Head Tolerance ........... 0.001500 m
  
  
  **************************        Volume         Depth
  Runoff Quantity Continuity     hectare-m            mm
  **************************     ---------       -------
  Total Precipitation ......         4.719        16.729
  Evaporation Loss .........         0.000         0.000
  Infiltration Loss ........         2.165         7.676
  Surface Runoff ...........         1.296         4.594
  Final Storage ............         1.260         4.466
  Continuity Error (%) .....        -0.044
  
  
  **************************           COD         NH3-N            TN            TP            SS
  Runoff Quality Continuity             kg            kg            kg            kg            kg
  **************************    ----------    ----------    ----------    ----------    ----------
  Initial Buildup ..........     13074.240         0.000         0.000         0.000         0.000
  Surface Buildup ..........       105.737         0.000         0.000         0.000         0.000
  Wet Deposition ...........         0.000         0.000         0.000         0.000         0.000
  Sweeping Removal .........         0.000         0.000         0.000         0.000         0.000
  Infiltration Loss ........       194.593         0.000         0.000         0.000         0.000
  BMP Removal ..............         0.000         0.000         0.000         0.000         0.000
  Surface Runoff ...........      1897.791         0.000         0.000         0.000         0.000
  Remaining Buildup ........     11086.103         0.000         0.000         0.000         0.000
  Continuity Error (%) .....         0.011         0.000         0.000         0.000         0.000
  
  
  **************************        Volume        Volume
  Flow Routing Continuity        hectare-m      10^6 ltr
  **************************     ---------     ---------
  Dry Weather Inflow .......         0.000         0.000
  Wet Weather Inflow .......         1.293        12.931
  Groundwater Inflow .......         0.000         0.000
  RDII Inflow ..............         0.000         0.000
  External Inflow ..........         0.561         5.611
  External Outflow .........         1.006        10.058
  Flooding Loss ............         0.754         7.539
  Evaporation Loss .........         0.000         0.000
  Exfiltration Loss ........         0.000         0.000
  Initial Stored Volume ....         0.000         0.000
  Final Stored Volume ......         0.095         0.952
  Continuity Error (%) .....        -0.041
  
  
  **************************           COD         NH3-N            TN            TP            SS
  Quality Routing Continuity            kg            kg            kg            kg            kg
  **************************    ----------    ----------    ----------    ----------    ----------
  Dry Weather Inflow .......         0.000         0.000         0.000         0.000         0.000
  Wet Weather Inflow .......      1895.379         0.000         0.000         0.000         0.000
  Groundwater Inflow .......         0.000         0.000         0.000         0.000         0.000
  RDII Inflow ..............         0.000         0.000         0.000         0.000         0.000
  External Inflow ..........       937.064         0.000         0.000         0.000         0.000
  External Outflow .........      1670.207         0.000         0.000         0.000         0.000
  Flooding Loss ............      1056.357         0.000         0.000         0.000         0.000
  Exfiltration Loss ........         0.000         0.000         0.000         0.000         0.000
  Mass Reacted .............         0.000         0.000         0.000         0.000         0.000
  Initial Stored Mass ......         0.000         0.000         0.000         0.000         0.000
  Final Stored Mass ........       109.266         0.000         0.000         0.000         0.000
  Continuity Error (%) .....        -0.120         0.000         0.000         0.000         0.000
  
  
  ***************************
  Time-Step Critical Elements
  ***************************
  Link WSL2448 (33.25%)
  Link WSL1477 (32.81%)
  Link WSL1516 (30.74%)
  
  
  ********************************
  Highest Flow Instability Indexes
  ********************************
  Link WSL1477 (122)
  Link WSL1516 (121)
  Link WSL1515 (24)
  Link WSL2867 (20)
  Link WSL1475 (19)
  
  
  *************************
  Routing Time Step Summary
  *************************
  Minimum Time Step           :     0.42 sec
  Average Time Step           :     2.72 sec
  Maximum Time Step           :     5.00 sec
  Percent in Steady State     :     0.00
  Average Iterations per Step :     3.23
  Percent Not Converging      :    11.15
  
  
  ***************************
  Subcatchment Runoff Summary
  ***************************
  
  ------------------------------------------------------------------------------------------------------------------------------
                            Total      Total      Total      Total     Imperv       Perv      Total       Total     Peak  Runoff
                           Precip      Runon       Evap      Infil     Runoff     Runoff     Runoff      Runoff   Runoff   Coeff
  Subcatchment                 mm         mm         mm         mm         mm         mm         mm    10^6 ltr      MLD
  ------------------------------------------------------------------------------------------------------------------------------
  1                         16.73      19.99       0.00       9.91       8.81       9.10      17.91        0.22     2.65   0.488
  2                         16.73       0.00       0.00       7.90       4.03       1.61       5.64        0.19     3.39   0.337
  3                         16.73       0.00       0.00       7.95       3.99       1.37       5.36        0.27     4.83   0.320
  4                         16.73       0.00       0.00       7.87       4.05       1.77       5.82        0.15     2.76   0.348
  5                         16.73      13.93       0.00       9.59       7.40       6.51      13.91        0.24     3.25   0.454
  6                         16.73       0.00       0.00       7.95       3.99       1.38       5.38        0.27     4.70   0.322
  7                         16.73       0.00       0.00       7.19       5.06       0.00       5.06        8.09    98.68   0.302
  8                         16.73       0.00       0.00       7.93       4.01       1.47       5.48        0.23     4.13   0.328
  9                         16.73       5.41       0.00       8.74       5.28       2.72       8.00        0.30     4.72   0.361
  17                        16.73       0.00       0.00       7.91       4.02       1.56       5.58        0.20     3.65   0.334
  18                        16.73       0.00       0.00       7.93       4.01       1.46       5.47        0.24     4.21   0.327
  28                        16.73      18.45       0.00      10.07       8.33       6.71      15.04        0.40     4.86   0.427
  29                        16.73       7.81       0.00       8.85       5.83       3.67       9.50        0.23     3.15   0.387
  30                        16.73      21.37       0.00      10.07       9.27      11.03      20.30        0.19     2.55   0.533
  31                        16.73       0.00       0.00       7.91       4.03       1.58       5.61        0.20     3.54   0.335
  33                        16.73       0.00       0.00       7.66       4.11       2.62       6.73        0.06     1.04   0.402
  34                        16.73      12.09       0.00       9.46       6.94       5.50      12.45        0.26     3.63   0.432
  35                        16.73       0.00       0.00       7.88       4.04       1.68       5.72        0.17     3.09   0.342
  36                        16.73      11.38       0.00       9.59       6.59       3.53      10.11        0.60     8.38   0.360
  39                        16.73       0.00       0.00       7.90       4.03       1.60       5.63        0.19     3.42   0.337
  40                        16.73       3.00       0.00       8.40       4.72       2.14       6.86        0.27     4.41   0.347
  41                        16.73       0.00       0.00       7.81       4.07       1.99       6.06        0.12     2.10   0.362
  42                        16.73       0.00       0.00       7.84       4.06       1.87       5.93        0.14     2.42   0.355
  43                        16.73       0.00       0.00       7.45       4.14       3.39       7.53        0.03     0.49   0.450
  44                        16.73     168.09       0.00      15.33      45.35     101.30     146.65        0.54     7.11   0.794
  45                        16.73       0.00       0.00       7.70       4.11       2.48       6.58        0.07     1.21   0.393
  46                        16.73       9.52       0.00       9.13       6.30       4.52      10.83        0.23     3.30   0.412
  47                        16.73       0.00       0.00       7.71       4.10       2.42       6.52        0.07     1.29   0.390
  48                        16.73       4.57       0.00       8.44       5.17       3.45       8.62        0.14     2.15   0.405
  55                        16.73       6.83       0.00       8.55       5.75       5.08      10.84        0.09     1.35   0.460
  56                        16.73      10.47       0.00       9.23       6.53       4.81      11.33        0.24     3.38   0.417
  57                        16.73       0.00       0.00       7.95       3.99       1.38       5.37        0.27     4.75   0.321
  59                        16.73       0.00       0.00       7.65       4.11       2.65       6.76        0.06     1.01   0.404
  60                        16.73      14.87       0.00       9.20       7.73       9.43      17.16        0.09     1.24   0.543
  61                        16.73       0.00       0.00       8.07       3.80       0.80       4.60        0.83    13.87   0.275
  62                        16.73       0.00       0.00       8.08       3.79       0.78       4.57        0.87    14.49   0.273
  64                        16.73       0.00       0.00       7.73       4.10       2.35       6.45        0.08     1.38   0.386
  
  
  ****************************
  Subcatchment Washoff Summary
  ****************************
  
  ------------------------------------------------------------------------------------------
                                 COD         NH3-N            TN            TP            SS
  Subcatchment                    kg            kg            kg            kg            kg
  ------------------------------------------------------------------------------------------
  1                           34.928         0.000         0.000         0.000         0.000
  2                            0.000         0.000         0.000         0.000         0.000
  3                            0.000         0.000         0.000         0.000         0.000
  4                           24.159         0.000         0.000         0.000         0.000
  5                           68.589         0.000         0.000         0.000         0.000
  6                           39.234         0.000         0.000         0.000         0.000
  7                         1041.479         0.000         0.000         0.000         0.000
  8                           34.810         0.000         0.000         0.000         0.000
  9                           66.879         0.000         0.000         0.000         0.000
  17                          31.088         0.000         0.000         0.000         0.000
  18                          35.452         0.000         0.000         0.000         0.000
  28                         143.887         0.000         0.000         0.000         0.000
  29                          65.541         0.000         0.000         0.000         0.000
  30                          55.540         0.000         0.000         0.000         0.000
  31                          30.289         0.000         0.000         0.000         0.000
  33                          10.087         0.000         0.000         0.000         0.000
  34                          73.387         0.000         0.000         0.000         0.000
  35                          26.754         0.000         0.000         0.000         0.000
  36                         171.054         0.000         0.000         0.000         0.000
  39                          29.349         0.000         0.000         0.000         0.000
  40                          51.979         0.000         0.000         0.000         0.000
  41                          18.867         0.000         0.000         0.000         0.000
  42                          21.412         0.000         0.000         0.000         0.000
  43                           5.066         0.000         0.000         0.000         0.000
  44                         162.599         0.000         0.000         0.000         0.000
  45                          11.506         0.000         0.000         0.000         0.000
  46                          65.522         0.000         0.000         0.000         0.000
  47                          12.197         0.000         0.000         0.000         0.000
  48                          31.086         0.000         0.000         0.000         0.000
  55                          23.579         0.000         0.000         0.000         0.000
  56                          71.215         0.000         0.000         0.000         0.000
  57                          39.606         0.000         0.000         0.000         0.000
  59                           9.815         0.000         0.000         0.000         0.000
  60                          26.778         0.000         0.000         0.000         0.000
  61                         106.782         0.000         0.000         0.000         0.000
  62                         111.261         0.000         0.000         0.000         0.000
  64                          12.963         0.000         0.000         0.000         0.000
  ------------------------------------------------------------------------------------------
  System                    2764.738         0.000         0.000         0.000         0.000
  
  
  ******************
  Node Depth Summary
  ******************
  
  ---------------------------------------------------------------------------------
                                 Average  Maximum  Maximum  Time of Max    Reported
                                   Depth    Depth      HGL   Occurrence   Max Depth
  Node                 Type       Meters   Meters   Meters  days hr:min      Meters
  ---------------------------------------------------------------------------------
  WS01000070           JUNCTION     0.00     0.00     0.00     0  00:00        0.00
  WS01000323           JUNCTION     0.00     0.00     0.00     0  00:00        0.00
  WS01000533           JUNCTION     0.00     0.00     6.86     0  00:00        0.00
  WS01005172           JUNCTION     0.00     0.00     0.00     0  00:00        0.00
  WS01005181           JUNCTION     0.00     0.00     0.00     0  00:00        0.00
  WS01009841           JUNCTION     0.00     0.00     0.00     0  00:00        0.00
  WS02000078           JUNCTION     0.00     0.00     0.00     0  00:00        0.00
  WS02000112           JUNCTION     0.00     0.00     0.00     0  00:00        0.00
  WS02000136           JUNCTION     0.00     0.00     0.00     0  00:00        0.00
  WS02001211           JUNCTION     0.42     0.47     5.31     0  02:11        0.47
  WS02001212           JUNCTION     0.36     0.44     5.24     0  02:10        0.44
  WS02001213           JUNCTION     0.46     0.55     5.25     0  02:09        0.54
  WS02003059           JUNCTION     0.43     0.57     5.22     0  02:08        0.57
  WS02003060           JUNCTION     0.50     0.66     5.21     0  02:07        0.66
  WS02003066           JUNCTION     0.20     0.33     5.63     0  02:23        0.33
  WS02003067           JUNCTION     0.34     0.55     5.87     0  02:07        0.53
  WS02003071           JUNCTION     0.55     0.74     5.14     0  02:24        0.73
  WS02003072           JUNCTION     0.46     0.69     5.06     0  02:23        0.68
  WS02003073           JUNCTION     0.53     0.86     5.10     0  02:23        0.78
  WS02003076           JUNCTION     0.49     0.73     4.96     0  02:22        0.73
  WS02003077           JUNCTION     0.07     0.11     5.12     0  02:02        0.11
  WS02003078           JUNCTION     0.05     0.07     6.97     0  02:02        0.07
  WS02003079           JUNCTION     0.14     0.23     7.14     0  02:02        0.23
  WS02003093           JUNCTION     0.03     0.07     7.41     0  01:58        0.07
  WS02003094           JUNCTION     0.13     0.19     7.41     0  01:59        0.19
  WS02003098           JUNCTION     0.08     0.12     7.29     0  02:00        0.12
  WS02003099           JUNCTION     0.16     0.25     7.29     0  02:00        0.25
  WS02003102           JUNCTION     0.15     0.24     7.27     0  02:00        0.24
  WS02003103           JUNCTION     0.17     0.26     7.23     0  02:01        0.26
  WS02003104           JUNCTION     0.16     0.25     7.21     0  02:01        0.25
  WS02003106           JUNCTION     0.16     0.25     7.18     0  02:01        0.25
  WS02004050           JUNCTION     0.33     0.45     4.67     0  02:24        0.44
  WS02004053           JUNCTION     0.00     0.00     0.00     0  00:00        0.00
  WS02004136           JUNCTION     0.17     0.18     6.91     0  01:15        0.18
  WS02004139           JUNCTION     0.35     0.38     5.34     0  02:12        0.38
  WS02004401           JUNCTION     0.33     0.51     6.51     0  02:09        0.51
  WS02004402           JUNCTION     0.34     0.53     6.49     0  02:09        0.53
  WS02004403           JUNCTION     0.33     0.52     6.45     0  02:08        0.52
  WS02004404           JUNCTION     0.41     0.61     6.46     0  02:10        0.61
  WS02004405           JUNCTION     0.42     0.61     6.45     0  02:10        0.61
  WS02004406           JUNCTION     0.40     0.58     6.41     0  02:10        0.58
  WS02004407           JUNCTION     0.38     0.56     6.36     0  02:09        0.55
  WS02004409           JUNCTION     0.37     0.54     6.31     0  02:08        0.54
  WS02004410           JUNCTION     0.36     0.52     6.24     0  02:08        0.52
  WS02004411           JUNCTION     0.33     0.48     6.16     0  02:08        0.48
  WS02004412           JUNCTION     0.28     0.43     6.07     0  02:07        0.43
  WS02004413           JUNCTION     0.30     0.46     5.93     0  02:07        0.46
  WS02004997           JUNCTION     5.71     6.90     8.51     0  01:36        6.73
  WS02005192           JUNCTION     0.16     0.29     8.16     0  01:47        0.28
  WS02005193           JUNCTION     0.17     0.30     8.12     0  01:48        0.30
  WS02005196           JUNCTION     0.17     0.28     8.13     0  01:48        0.27
  WS02006109           JUNCTION     0.37     0.55     7.17     0  02:11        0.55
  WS02006110           JUNCTION     0.35     0.50     7.10     0  02:10        0.50
  WS02006111           JUNCTION     0.18     0.29     6.87     0  02:08        0.29
  WS02006112           JUNCTION     0.35     0.53     6.65     0  02:09        0.53
  WS02006113           JUNCTION     0.30     0.43     7.02     0  02:06        0.43
  WS02006115           JUNCTION     0.31     0.48     6.58     0  02:10        0.48
  WS02006116           JUNCTION     0.34     0.51     6.55     0  02:10        0.51
  WS02006183           JUNCTION     0.00     0.00     0.00     0  00:00        0.00
  WS02006228           JUNCTION     0.38     0.56     7.21     0  02:12        0.56
  WS02006229           JUNCTION     0.34     0.53     7.22     0  02:10        0.53
  WS02006230           JUNCTION     0.32     0.51     7.26     0  02:04        0.51
  WS02006231           JUNCTION     0.24     0.39     7.29     0  02:02        0.39
  WS02006232           JUNCTION     0.23     0.37     7.40     0  02:00        0.37
  WS02006234           JUNCTION     0.22     0.35     7.51     0  02:00        0.35
  WS02006235           JUNCTION     0.26     0.41     7.58     0  02:00        0.41
  WS02006238           JUNCTION     0.27     0.41     7.59     0  02:00        0.41
  WS02006239           JUNCTION     0.28     0.45     7.66     0  02:00        0.45
  WS02006242           JUNCTION     0.30     0.48     7.78     0  02:00        0.48
  WS02006240           JUNCTION     0.25     0.41     7.70     0  02:00        0.41
  WS02006243           JUNCTION     0.24     0.40     7.82     0  02:00        0.40
  WS02006245           JUNCTION     0.24     0.40     7.89     0  02:00        0.40
  WS02006247           JUNCTION     0.27     0.43     7.94     0  02:00        0.43
  WS02006248           JUNCTION     0.22     0.38     7.97     0  01:59        0.38
  WS02006249           JUNCTION     0.24     0.41     8.01     0  01:59        0.41
  WS02006251           JUNCTION     0.23     0.41     8.08     0  01:48        0.41
  WS02006253           JUNCTION     0.17     0.32     8.12     0  01:48        0.31
  WS02618401           JUNCTION     0.00     0.00     0.00     0  00:00        0.00
  WS8802               JUNCTION     0.00     0.00     4.38     0  00:00        0.00
  WSA1649              JUNCTION     0.00     0.00     0.00     0  00:00        0.00
  WSF200               JUNCTION     0.19     0.32     5.42     0  02:15        0.31
  XR-Inflow            JUNCTION     5.53     6.55     8.36     0  01:36        6.55
  WS02004114           JUNCTION     5.71     7.06     8.66     0  01:36        6.73
  outfall-2            OUTFALL      0.00     0.00     7.00     0  00:00        0.00
  outfall-5            OUTFALL      0.00     0.00     7.67     0  00:00        0.00
  outfall-14           OUTFALL      0.00     0.00     7.66     0  00:00        0.00
  outfall-16           OUTFALL      0.00     0.00     8.39     0  00:00        0.00
  12                   OUTFALL      0.33     0.44     0.44     0  02:24        0.44
  XR-storage           STORAGE      6.79     8.22     8.72     0  01:36        7.83
  CC-storage           STORAGE      3.56     5.03     8.21     0  01:45        5.02
  JK-storage           STORAGE      4.03     4.80     7.80     0  01:37        4.80
  
  
  *******************
  Node Inflow Summary
  *******************
  
  -------------------------------------------------------------------------------------------------
                                  Maximum  Maximum                  Lateral       Total        Flow
                                  Lateral    Total  Time of Max      Inflow      Inflow     Balance
                                   Inflow   Inflow   Occurrence      Volume      Volume       Error
  Node                 Type           MLD      MLD  days hr:min    10^6 ltr    10^6 ltr     Percent
  -------------------------------------------------------------------------------------------------
  WS01000070           JUNCTION      0.00     0.00     0  00:00           0           0       0.000 ltr
  WS01000323           JUNCTION      0.00     0.00     0  00:00           0           0       0.000 ltr
  WS01000533           JUNCTION      0.00     0.00     0  00:00           0           0       0.000 ltr
  WS01005172           JUNCTION      0.00     0.00     0  00:00           0           0       0.000 ltr
  WS01005181           JUNCTION      0.00     0.00     0  00:00           0           0       0.000 ltr
  WS01009841           JUNCTION      0.00     0.00     0  00:00           0           0       0.000 ltr
  WS02000078           JUNCTION      0.00     0.00     0  00:00           0           0       0.000 ltr
  WS02000112           JUNCTION      0.00     0.00     0  00:00           0           0       0.000 ltr
  WS02000136           JUNCTION      0.00     0.00     0  00:00           0           0       0.000 ltr
  WS02001211           JUNCTION      0.25    33.89     0  01:25      0.0407        4.91       0.516
  WS02001212           JUNCTION      0.21    34.35     0  02:11      0.0346        4.92       0.286
  WS02001213           JUNCTION      0.30    35.34     0  02:22      0.0489        4.95       0.390
  WS02003059           JUNCTION      0.23    36.03     0  02:10      0.0378        4.97       0.473
  WS02003060           JUNCTION      0.16   104.14     0  02:21      0.0252        9.33       0.366
  WS02003066           JUNCTION      0.08    77.65     0  02:06      0.0122        4.34       0.183
  WS02003067           JUNCTION      0.26    61.64     0  02:07      0.0395        4.34       0.186
  WS02003071           JUNCTION      0.35    98.48     0  02:19      0.0538        9.35       0.412
  WS02003072           JUNCTION      0.24   101.04     0  02:25      0.0382        9.35       0.254
  WS02003073           JUNCTION      0.07   113.32     0  02:24     0.00978        9.92       0.261
  WS02003076           JUNCTION      0.72   126.78     0  02:23        0.12          10       0.118
  WS02003077           JUNCTION      0.04     9.11     0  02:02      0.0059       0.579       0.120
  WS02003078           JUNCTION      0.03    10.45     0  02:02     0.00419       0.572      -0.154
  WS02003079           JUNCTION      0.04     9.04     0  02:01     0.00561       0.569       0.278
  WS02003093           JUNCTION      0.02     0.07     0  01:46     0.00306     0.00331       0.379
  WS02003094           JUNCTION      4.78     4.80     0  01:59       0.312       0.315       0.727
  WS02003098           JUNCTION      0.02     4.82     0  02:00     0.00293       0.315       0.436
  WS02003099           JUNCTION      0.07     4.89     0  02:00      0.0109       0.325       0.920
  WS02003102           JUNCTION      4.16     8.95     0  01:59       0.236       0.558       0.426
  WS02003103           JUNCTION      0.02     8.95     0  02:00     0.00239       0.558       0.307
  WS02003104           JUNCTION      0.02     8.97     0  02:01     0.00302        0.56       0.254
  WS02003106           JUNCTION      0.05     9.01     0  02:01     0.00728       0.566       0.318
  WS02004050           JUNCTION      0.72   137.76     0  02:23       0.119        10.1       0.595
  WS02004053           JUNCTION      0.00     0.00     0  00:00           0           0       0.000 ltr
  WS02004136           JUNCTION      0.44    32.92     0  01:13      0.0703        4.83       0.062
  WS02004139           JUNCTION      0.38    33.70     0  01:15      0.0619        4.89       0.359
  WS02004401           JUNCTION      0.05    42.98     0  02:08     0.00897        3.05       0.179
  WS02004402           JUNCTION      0.22    43.17     0  02:10      0.0335        3.08       0.167
  WS02004403           JUNCTION      0.23    43.39     0  02:12      0.0349        3.11       0.138
  WS02004404           JUNCTION      0.24    43.62     0  02:12      0.0365        3.14       0.139
  WS02004405           JUNCTION      2.83    46.07     0  02:07       0.166         3.3       0.208
  WS02004406           JUNCTION      4.99    51.06     0  02:11       0.416        3.71       0.290
  WS02004407           JUNCTION      0.11    51.19     0  02:10      0.0171        3.72       0.260
  WS02004409           JUNCTION      3.46    54.67     0  02:10        0.27        3.98       0.216
  WS02004410           JUNCTION      0.15    54.85     0  02:09      0.0226        3.99       0.222
  WS02004411           JUNCTION      0.25    55.20     0  02:09      0.0379        4.02       0.193
  WS02004412           JUNCTION      4.80    59.73     0  02:08        0.28        4.29       0.147
  WS02004413           JUNCTION      0.11    60.07     0  02:08      0.0172        4.31       0.142
  WS02004997           JUNCTION      0.42    45.80     0  01:36      0.0693        4.84       0.793
  WS02005192           JUNCTION      4.87     4.87     0  01:56       0.286       0.287       0.133
  WS02005193           JUNCTION      0.09     6.84     0  01:46      0.0146       0.337       0.237
  WS02005196           JUNCTION      0.12     6.00     0  01:47       0.019       0.311       0.255
  WS02006109           JUNCTION      0.08    37.72     0  02:13      0.0135        2.65       0.260
  WS02006110           JUNCTION      0.08    37.80     0  02:13      0.0132        2.66       0.247
  WS02006111           JUNCTION      0.24    42.49     0  02:07      0.0366        2.99       0.090
  WS02006112           JUNCTION      0.18    42.65     0  02:07      0.0273        3.01       0.192
  WS02006113           JUNCTION      5.00    42.28     0  02:06       0.299        2.95       0.160
  WS02006115           JUNCTION      0.08    42.72     0  02:08      0.0134        3.02       0.193
  WS02006116           JUNCTION      0.24    42.93     0  02:08       0.036        3.05       0.189
  WS02006183           JUNCTION      0.00     0.00     0  00:00           0           0       0.000 ltr
  WS02006228           JUNCTION      7.27    37.64     0  02:12        0.57        2.65       0.190
  WS02006229           JUNCTION      0.13    31.38     0  02:00        0.02        2.08       0.178
  WS02006230           JUNCTION      0.07    31.27     0  02:00      0.0116        2.06       0.160
  WS02006231           JUNCTION      0.13    31.22     0  02:00      0.0205        2.05       0.082
  WS02006232           JUNCTION      3.47    31.10     0  02:00       0.204        2.03       0.086
  WS02006234           JUNCTION      0.14    27.71     0  02:00      0.0216        1.83       0.101
  WS02006235           JUNCTION      0.14    27.58     0  02:01      0.0223        1.81       0.055
  WS02006238           JUNCTION      0.15    27.45     0  02:00      0.0235        1.79       0.097
  WS02006239           JUNCTION      0.11    27.30     0  02:00      0.0174        1.77       0.150
  WS02006242           JUNCTION      0.08    27.15     0  02:00      0.0129        1.75       0.195
  WS02006240           JUNCTION      0.06    27.20     0  02:00     0.00992        1.75       0.118
  WS02006243           JUNCTION      0.17    27.07     0  02:00      0.0269        1.74       0.105
  WS02006245           JUNCTION      0.07    26.90     0  02:00      0.0113        1.71       0.091
  WS02006247           JUNCTION      2.79    26.84     0  01:59       0.241         1.7       0.108
  WS02006248           JUNCTION      0.12    24.18     0  01:58      0.0192        1.46       0.032
  WS02006249           JUNCTION      0.19    24.54     0  01:49      0.0286        1.44       0.132
  WS02006251           JUNCTION      1.41    24.83     0  01:48      0.0997        1.42       0.073
  WS02006253           JUNCTION      0.11    23.21     0  01:48      0.0173        1.33      -0.004
  WS02618401           JUNCTION      0.00     0.00     0  00:00           0           0       0.000 ltr
  WS8802               JUNCTION      0.00     0.00     0  00:00           0           0       0.000 ltr
  WSA1649              JUNCTION      0.00     0.00     0  00:00           0           0       0.000 ltr
  WSF200               JUNCTION      0.14    71.07     0  02:07      0.0216        4.36      -0.032
  XR-Inflow            JUNCTION    117.77   117.77     0  02:16        11.4        11.4       0.195
  WS02004114           JUNCTION      0.57    46.30     0  01:36      0.0916        4.89       0.453
  outfall-2            OUTFALL       0.00     0.00     0  00:00           0           0       0.000 ltr
  outfall-5            OUTFALL       0.00     0.00     0  00:00           0           0       0.000 ltr
  outfall-14           OUTFALL       0.00     0.00     0  00:00           0           0       0.000 ltr
  outfall-16           OUTFALL       0.00     0.00     0  00:00           0           0       0.000 ltr
  12                   OUTFALL       0.00   112.85     0  02:24           0        10.1       0.000
  XR-storage           STORAGE       0.00    46.17     0  01:36           0        4.87       0.957
  CC-storage           STORAGE      15.78    15.78     0  02:00        1.11        1.11       0.001
  JK-storage           STORAGE      15.65    15.65     0  02:00        1.04        1.04       0.002
  
  
  **********************
  Node Surcharge Summary
  **********************
  
  Surcharging occurs when water rises above the top of the highest conduit.
  ---------------------------------------------------------------------
                                               Max. Height   Min. Depth
                                   Hours       Above Crown    Below Rim
  Node                 Type      Surcharged         Meters       Meters
  ---------------------------------------------------------------------
  WS01000070           JUNCTION        4.00          0.000        0.000
  WS01000323           JUNCTION        4.00          0.000        0.000
  WS01000533           JUNCTION        4.00          0.000        2.147
  WS01005172           JUNCTION        4.00          0.000        0.000
  WS01005181           JUNCTION        4.00          0.000        0.000
  WS01009841           JUNCTION        4.00          0.000        0.000
  WS02000078           JUNCTION        4.00          0.000        0.000
  WS02000112           JUNCTION        4.00          0.000        0.000
  WS02000136           JUNCTION        4.00          0.000        0.000
  WS02004053           JUNCTION        4.00          0.000        0.000
  WS02004997           JUNCTION        3.88          6.000        0.000
  WS02006183           JUNCTION        4.00          0.000        0.000
  WS02618401           JUNCTION        4.00          0.000        0.000
  WS8802               JUNCTION        4.00          0.000        4.942
  WSA1649              JUNCTION        4.00          0.000        0.000
  XR-Inflow            JUNCTION        3.87          5.650        0.000
  WS02004114           JUNCTION        3.88          6.162        0.353
  XR-storage           STORAGE         3.96          7.320        0.000
  
  
  *********************
  Node Flooding Summary
  *********************
  
  Flooding refers to all water that overflows a node, whether it ponds or not.
  --------------------------------------------------------------------------
                                                             Total   Maximum
                                 Maximum   Time of Max       Flood    Ponded
                        Hours       Rate    Occurrence      Volume     Depth
  Node                 Flooded       MLD   days hr:min    10^6 ltr    Meters
  --------------------------------------------------------------------------
  WS02004997              0.01      3.35      0  01:36       0.000     0.000
  XR-Inflow               2.40     86.24      0  02:16       6.630     0.000
  XR-storage              0.01     11.60      0  01:36       0.001     0.500
  JK-storage              2.38     15.65      0  02:00       0.908     0.000
  
  
  **********************
  Storage Volume Summary
  **********************
  
  --------------------------------------------------------------------------------------------------
                         Average     Avg  Evap Exfil       Maximum     Max    Time of Max    Maximum
                          Volume    Pcnt  Pcnt  Pcnt        Volume    Pcnt     Occurrence    Outflow
  Storage Unit           1000 m3    Full  Loss  Loss       1000 m3    Full    days hr:min        MLD
  --------------------------------------------------------------------------------------------------
  XR-storage               0.055      87     0     0         0.063     100       0  01:36      32.48
  CC-storage               0.101      63     0     0         0.142      89       0  01:45      17.28
  JK-storage               0.114      84     0     0         0.136     100       0  01:37       0.00
  
  
  ***********************
  Outfall Loading Summary
  ***********************
  
  ---------------------------------------------------------------------------------------------------------------------------------
                         Flow       Avg       Max       Total         Total         Total         Total         Total         Total
                         Freq      Flow      Flow      Volume           COD         NH3-N            TN            TP            SS
  Outfall Node           Pcnt       MLD       MLD    10^6 ltr            kg            kg            kg            kg            kg
  ---------------------------------------------------------------------------------------------------------------------------------
  outfall-2              0.00      0.00      0.00       0.000         0.000         0.000         0.000         0.000         0.000
  outfall-5              0.00      0.00      0.00       0.000         0.000         0.000         0.000         0.000         0.000
  outfall-14             0.00      0.00      0.00       0.000         0.000         0.000         0.000         0.000         0.000
  outfall-16             0.00      0.00      0.00       0.000         0.000         0.000         0.000         0.000         0.000
  12                    99.98     69.42    112.85      10.058      1670.398         0.000         0.000         0.000         0.000
  ---------------------------------------------------------------------------------------------------------------------------------
  System                20.00     69.42    112.85      10.058      1670.398         0.000         0.000         0.000         0.000
  
  
  ********************
  Link Flow Summary
  ********************
  
  -----------------------------------------------------------------------------
                                 Maximum  Time of Max   Maximum    Max/    Max/
                                  |Flow|   Occurrence   |Veloc|    Full    Full
  Link                 Type          MLD  days hr:min     m/sec    Flow   Depth
  -----------------------------------------------------------------------------
  WSL49                CONDUIT    126.06     0  02:23      2.33    1.57    0.64
  WSL1465              CONDUIT     39.63     0  02:21      1.65    0.36    0.60
  WSL1472              CONDUIT    100.81     0  02:25      1.86    1.15    0.58
  WSL1475              CONDUIT    137.05     0  02:23      2.84    1.46    0.41
  WSL1476              CONDUIT      9.09     0  02:02      0.50    0.04    0.57
  WSL1477              CONDUIT     10.43     0  02:02      2.19    0.41    0.25
  WSL1490              CONDUIT     34.14     0  02:11      1.38    0.55    0.45
  WSL1491              CONDUIT     35.05     0  02:22      1.44    0.20    0.49
  WSL1492              CONDUIT     35.81     0  02:10      1.38    0.55    0.56
  WSL1507              CONDUIT      0.06     0  02:18      0.13    0.00    0.16
  WSL1508              CONDUIT      4.80     0  02:00      0.80    0.14    0.20
  WSL1512              CONDUIT      4.81     0  02:00      0.55    0.03    0.19
  WSL1513              CONDUIT      4.88     0  02:01      0.44    0.29    0.30
  WSL1515              CONDUIT     77.58     0  02:06      2.56    0.76    0.35
  WSL1516              CONDUIT      9.08     0  02:02      3.71    0.03    0.16
  WSL1518              CONDUIT      8.94     0  02:00      0.78    0.18    0.31
  WSL1519              CONDUIT      8.96     0  02:01      0.77    0.22    0.31
  WSL1521              CONDUIT      9.00     0  02:01      0.84    0.26    0.30
  WSL1543              CONDUIT      8.95     0  02:01      0.75    0.28    0.32
  WSL1961              CONDUIT     33.31     0  01:15      3.05    0.07    0.28
  WSL1964              CONDUIT     33.64     0  01:25      1.38    0.18    0.35
  WSL2010              CONDUIT     43.19     0  02:12      1.26    0.55    0.52
  WSL2011              CONDUIT     43.41     0  02:12      1.13    0.28    0.57
  WSL2012              CONDUIT     43.63     0  02:11      1.01    0.66    0.61
  WSL2013              CONDUIT     46.08     0  02:11      1.09    1.14    0.60
  WSL2014              CONDUIT     51.10     0  02:10      1.28    0.82    0.57
  WSL2015              CONDUIT     51.24     0  02:10      1.35    0.69    0.55
  WSL2016              CONDUIT     54.72     0  02:09      1.51    0.63    0.53
  WSL2017              CONDUIT     54.98     0  02:09      1.63    0.67    0.50
  WSL2018              CONDUIT     59.97     0  02:08      2.13    0.36    0.44
  WSL2019              CONDUIT     61.42     0  02:07      1.99    0.36    0.50
  WSL2028              CONDUIT     42.98     0  02:10      1.25    0.46    0.52
  WSL2029              CONDUIT     55.36     0  02:08      1.86    0.70    0.45
  WSL2038              CONDUIT      5.87     0  01:47      0.67    0.29    0.46
  WSL2039              CONDUIT      9.28     0  02:20      1.37    0.48    0.50
  WSL2041              CONDUIT      5.89     0  02:21      0.88    0.29    0.48
  WSL2294              CONDUIT     37.73     0  02:13      1.24    1.27    0.66
  WSL2295              CONDUIT     37.81     0  02:14      1.45    1.70    0.58
  WSL2296              CONDUIT     42.49     0  02:07      1.96    0.24    0.51
  WSL2297              CONDUIT     42.64     0  02:08      1.30    0.82    0.50
  WSL2298              CONDUIT     42.28     0  02:07      2.25    1.95    0.45
  WSL2301              CONDUIT     42.72     0  02:08      1.31    0.39    0.50
  WSL2302              CONDUIT     42.93     0  02:08      1.28    0.53    0.51
  WSL2441              CONDUIT     37.64     0  02:13      1.17    0.96    0.70
  WSL2442              CONDUIT     31.27     0  02:00      1.28    0.80    0.75
  WSL2443              CONDUIT     31.20     0  02:00      1.46    0.49    0.65
  WSL2444              CONDUIT     31.10     0  02:00      1.74    0.49    0.54
  WSL2446              CONDUIT     27.70     0  02:00      1.65    0.48    0.51
  WSL2447              CONDUIT     27.58     0  02:01      1.51    1.42    0.54
  WSL2448              CONDUIT     27.45     0  02:01      1.36    0.77    0.58
  WSL2449              CONDUIT     27.31     0  02:00      1.28    0.95    0.61
  WSL2450              CONDUIT     27.20     0  02:00      1.27    0.57    0.61
  WSL2451              CONDUIT     27.14     0  02:00      1.23    1.77    0.63
  WSL2452              CONDUIT     27.06     0  02:00      1.30    0.52    0.63
  WSL2454              CONDUIT     26.90     0  02:00      1.47    0.63    0.57
  WSL2478              CONDUIT     26.83     0  02:00      1.35    0.95    0.59
  WSL2479              CONDUIT     24.18     0  01:57      1.25    0.46    0.58
  WSL2480              CONDUIT     24.06     0  01:58      1.28    1.11    0.56
  WSL2482              CONDUIT     24.36     0  01:49      1.24    0.63    0.58
  WSL2484              CONDUIT     23.55     0  01:48      1.82    0.33    0.51
  WSL2493              CONDUIT     31.38     0  02:00      1.07    0.53    0.69
  WSL2867              CONDUIT     70.95     0  02:07      3.60    0.15    0.26
  WSL2868              CONDUIT     67.85     0  02:07      1.86    0.13    0.40
  WSL348               CONDUIT     45.38     0  01:36      1.86    0.42    1.00
  WSL175               CONDUIT     45.73     0  01:36      2.30    1.54    1.00
  WSL1467              CONDUIT     98.17     0  02:19      1.76    0.52    0.57
  WSL1473              CONDUIT    105.88     0  02:24      2.00    0.43    0.62
  XRpipe               CONDUIT     46.17     0  01:36      2.53    0.11    1.00
  8                    CONDUIT      0.00     0  00:00      0.00    0.00    0.00
  19                   CONDUIT      0.00     0  00:00      0.00    0.00    0.00
  17                   CONDUIT      0.00     0  00:00      0.00    0.00    0.00
  4                    CONDUIT      0.00     0  00:00      0.00    0.00    0.00
  2                    CONDUIT    112.85     0  02:24      3.86    0.41    0.45
  XR-Pump-1            PUMP         8.12     0  00:08              1.00
  XR-Pump-3            PUMP         8.12     0  00:09              1.00
  XR-Pump-2            PUMP         8.12     0  00:09              1.00
  XR-Pump-4            PUMP         8.12     0  01:13              1.00
  CC-Pump-1            PUMP        17.28     0  01:28              1.00
  CC-Pump-2            PUMP         0.00     0  00:00              0.00
  JK-Pump-1            PUMP         0.00     0  00:00              0.00
  JK-Pump-2            PUMP         0.00     0  00:00              0.00
  
  
  ***************************
  Flow Classification Summary
  ***************************
  
  -------------------------------------------------------------------------------------
                      Adjusted    ---------- Fraction of Time in Flow Class ---------- 
                       /Actual         Up    Down  Sub   Sup   Up    Down  Norm  Inlet 
  Conduit               Length    Dry  Dry   Dry   Crit  Crit  Crit  Crit  Ltd   Ctrl  
  -------------------------------------------------------------------------------------
  WSL49                   1.00   0.00  0.00  0.00  0.99  0.01  0.00  0.00  0.00  0.00
  WSL1465                 1.00   0.00  0.00  0.00  1.00  0.00  0.00  0.00  0.10  0.00
  WSL1472                 1.00   0.00  0.00  0.00  1.00  0.00  0.00  0.00  0.00  0.00
  WSL1475                 1.00   0.00  0.00  0.00  0.15  0.85  0.00  0.00  0.01  0.00
  WSL1476                 1.00   0.00  0.00  0.00  1.00  0.00  0.00  0.00  1.00  0.00
  WSL1477                 1.00   0.00  0.00  0.00  0.00  1.00  0.00  0.00  0.34  0.00
  WSL1490                 1.00   0.00  0.00  0.00  1.00  0.00  0.00  0.00  0.00  0.00
  WSL1491                 1.00   0.00  0.00  0.00  1.00  0.00  0.00  0.00  0.04  0.00
  WSL1492                 1.00   0.00  0.00  0.00  1.00  0.00  0.00  0.00  0.00  0.00
  WSL1507                 1.00   0.00  0.00  0.00  1.00  0.00  0.00  0.00  0.55  0.00
  WSL1508                 1.00   0.00  0.00  0.00  1.00  0.00  0.00  0.00  0.00  0.00
  WSL1512                 1.00   0.00  0.00  0.00  1.00  0.00  0.00  0.00  1.00  0.00
  WSL1513                 1.00   0.00  0.00  0.00  1.00  0.00  0.00  0.00  0.00  0.00
  WSL1515                 1.00   0.00  0.00  0.00  0.12  0.88  0.00  0.00  0.05  0.00
  WSL1516                 1.00   0.00  0.00  0.00  0.00  1.00  0.00  0.00  1.00  0.00
  WSL1518                 1.00   0.00  0.00  0.00  1.00  0.00  0.00  0.00  0.50  0.00
  WSL1519                 1.00   0.00  0.00  0.00  1.00  0.00  0.00  0.00  0.32  0.00
  WSL1521                 1.00   0.00  0.00  0.00  1.00  0.00  0.00  0.00  0.02  0.00
  WSL1543                 1.00   0.00  0.00  0.00  1.00  0.00  0.00  0.00  0.02  0.00
  WSL1961                 1.00   0.00  0.00  0.00  0.01  0.99  0.00  0.00  0.98  0.00
  WSL1964                 1.00   0.00  0.00  0.00  1.00  0.00  0.00  0.00  0.05  0.00
  WSL2010                 1.00   0.00  0.00  0.00  1.00  0.00  0.00  0.00  0.04  0.00
  WSL2011                 1.00   0.00  0.00  0.00  1.00  0.00  0.00  0.00  0.27  0.00
  WSL2012                 1.00   0.00  0.00  0.00  1.00  0.00  0.00  0.00  0.00  0.00
  WSL2013                 1.00   0.00  0.00  0.00  1.00  0.00  0.00  0.00  0.00  0.00
  WSL2014                 1.00   0.00  0.00  0.00  1.00  0.00  0.00  0.00  0.00  0.00
  WSL2015                 1.00   0.00  0.00  0.00  1.00  0.00  0.00  0.00  0.02  0.00
  WSL2016                 1.00   0.00  0.00  0.00  1.00  0.00  0.00  0.00  0.01  0.00
  WSL2017                 1.00   0.00  0.00  0.00  1.00  0.00  0.00  0.00  0.04  0.00
  WSL2018                 1.00   0.00  0.00  0.00  0.01  0.99  0.00  0.00  0.09  0.00
  WSL2019                 1.00   0.00  0.00  0.00  0.58  0.42  0.00  0.00  0.10  0.00
  WSL2028                 1.00   0.00  0.00  0.00  1.00  0.00  0.00  0.00  0.06  0.00
  WSL2029                 1.00   0.00  0.00  0.00  0.48  0.52  0.00  0.00  0.00  0.00
  WSL2038                 1.00   0.00  0.00  0.00  1.00  0.00  0.00  0.00  0.03  0.00
  WSL2039                 1.00   0.00  0.00  0.00  0.85  0.15  0.00  0.00  0.01  0.00
  WSL2041                 1.00   0.00  0.00  0.00  1.00  0.00  0.00  0.00  0.30  0.00
  WSL2294                 1.00   0.00  0.00  0.00  1.00  0.00  0.00  0.00  0.00  0.00
  WSL2295                 1.00   0.00  0.00  0.00  1.00  0.00  0.00  0.00  0.00  0.00
  WSL2296                 1.00   0.00  0.00  0.00  0.19  0.81  0.00  0.00  0.66  0.00
  WSL2297                 1.00   0.00  0.00  0.00  1.00  0.00  0.00  0.00  0.00  0.00
  WSL2298                 1.00   0.00  0.00  0.00  0.05  0.95  0.00  0.00  0.00  0.00
  WSL2301                 1.00   0.00  0.00  0.00  1.00  0.00  0.00  0.00  0.08  0.00
  WSL2302                 1.00   0.00  0.00  0.00  1.00  0.00  0.00  0.00  0.08  0.00
  WSL2441                 1.00   0.00  0.00  0.00  1.00  0.00  0.00  0.00  0.02  0.00
  WSL2442                 1.00   0.00  0.00  0.00  1.00  0.00  0.00  0.00  0.20  0.00
  WSL2443                 1.00   0.00  0.00  0.00  1.00  0.00  0.00  0.00  0.51  0.00
  WSL2444                 1.00   0.00  0.00  0.00  0.19  0.81  0.00  0.00  0.43  0.00
  WSL2446                 1.00   0.00  0.00  0.00  0.31  0.69  0.00  0.00  0.22  0.00
  WSL2447                 1.00   0.00  0.00  0.00  1.00  0.00  0.00  0.00  0.00  0.00
  WSL2448                 1.00   0.00  0.00  0.00  1.00  0.00  0.00  0.00  0.02  0.00
  WSL2449                 1.00   0.00  0.00  0.00  1.00  0.00  0.00  0.00  0.02  0.00
  WSL2450                 1.00   0.00  0.00  0.00  1.00  0.00  0.00  0.00  0.42  0.00
  WSL2451                 1.00   0.00  0.00  0.00  1.00  0.00  0.00  0.00  0.00  0.00
  WSL2452                 1.00   0.00  0.00  0.00  1.00  0.00  0.00  0.00  0.57  0.00
  WSL2454                 1.00   0.00  0.00  0.00  1.00  0.00  0.00  0.00  0.06  0.00
  WSL2478                 1.00   0.00  0.00  0.00  1.00  0.00  0.00  0.00  0.00  0.00
  WSL2479                 1.00   0.00  0.00  0.00  1.00  0.00  0.00  0.00  0.49  0.00
  WSL2480                 1.00   0.00  0.00  0.00  1.00  0.00  0.00  0.00  0.00  0.00
  WSL2482                 1.00   0.00  0.00  0.00  1.00  0.00  0.00  0.00  0.56  0.00
  WSL2484                 1.00   0.00  0.00  0.00  0.98  0.02  0.00  0.00  0.64  0.00
  WSL2493                 1.00   0.00  0.00  0.00  1.00  0.00  0.00  0.00  0.05  0.00
  WSL2867                 1.00   0.00  0.00  0.00  0.00  1.00  0.00  0.00  0.20  0.00
  WSL2868                 1.00   0.00  0.00  0.00  0.98  0.02  0.00  0.00  0.86  0.00
  WSL348                  1.00   0.00  0.00  0.00  1.00  0.00  0.00  0.00  0.01  0.00
  WSL175                  1.00   0.00  0.00  0.00  1.00  0.00  0.00  0.00  0.00  0.00
  WSL1467                 1.00   0.00  0.00  0.00  1.00  0.00  0.00  0.00  0.05  0.00
  WSL1473                 1.00   0.00  0.00  0.00  1.00  0.00  0.00  0.00  0.05  0.00
  XRpipe                  1.00   0.00  0.00  0.00  1.00  0.00  0.00  0.00  0.00  0.00
  8                       1.00   1.00  0.00  0.00  0.00  0.00  0.00  0.00  0.00  0.00
  19                      1.00   1.00  0.00  0.00  0.00  0.00  0.00  0.00  0.00  0.00
  17                      1.00   1.00  0.00  0.00  0.00  0.00  0.00  0.00  0.00  0.00
  4                       1.00   1.00  0.00  0.00  0.00  0.00  0.00  0.00  0.00  0.00
  2                       1.00   0.00  0.00  0.00  0.00  1.00  0.00  0.00  0.21  0.00
  
  
  *************************
  Conduit Surcharge Summary
  *************************
  
  ----------------------------------------------------------------------------
                                                           Hours        Hours 
                         --------- Hours Full --------   Above Full   Capacity
  Conduit                Both Ends  Upstream  Dnstream   Normal Flow   Limited
  ----------------------------------------------------------------------------
  WSL49                       0.01      0.01      0.01      1.17         0.01
  WSL1472                     0.01      0.01      0.01      0.47         0.01
  WSL1475                     0.01      0.01      0.01      0.55         0.01
  WSL1476                     0.01      0.01      0.01      0.01         0.01
  WSL2013                     0.01      0.01      0.01      0.51         0.01
  WSL2294                     0.01      0.01      0.01      0.90         0.01
  WSL2295                     0.01      0.01      0.01      1.34         0.01
  WSL2298                     0.01      0.01      0.01      1.52         0.01
  WSL2447                     0.01      0.01      0.01      1.17         0.01
  WSL2451                     0.01      0.01      0.01      1.31         0.01
  WSL2480                     0.01      0.01      0.01      0.57         0.01
  WSL348                      3.87      3.87      3.88      0.01         0.01
  WSL175                      3.88      3.88      3.88      2.64         2.73
  XRpipe                      3.88      3.88      3.96      0.01         0.01
  
  
  ***************
  Pumping Summary
  ***************
  
  ---------------------------------------------------------------------------------------------------------
                                                  Min       Avg       Max     Total     Power    % Time Off
                        Percent   Number of      Flow      Flow      Flow    Volume     Usage    Pump Curve
  Pump                 Utilized   Start-Ups       MLD       MLD       MLD  10^6 ltr     Kw-hr    Low   High
  ---------------------------------------------------------------------------------------------------------
  XR-Pump-1               96.39           1      0.00      8.12      8.12     1.305      6.59    0.0   62.1
  XR-Pump-3               91.55          17      0.00      8.12      8.12     1.239      6.10    0.0   65.4
  XR-Pump-2               96.26           1      0.00      8.12      8.12     1.303      6.57    0.0   62.2
  XR-Pump-4               67.39           8      0.00      8.12      8.12     0.912      3.66    0.0   88.8
  CC-Pump-1               34.12           6      0.00     17.28     17.28     0.983      2.57    0.0    0.0
  CC-Pump-2                0.00           0      0.00      0.00      0.00     0.000      0.00    0.0    0.0
  JK-Pump-1                0.00           0      0.00      0.00      0.00     0.000      0.00    0.0    0.0
  JK-Pump-2                0.00           0      0.00      0.00      0.00     0.000      0.00    0.0    0.0
  
  
  ***************************
  Link Pollutant Load Summary
  ***************************
  
  ------------------------------------------------------------------------------------------
                                 COD         NH3-N            TN            TP            SS
  Link                            kg            kg            kg            kg            kg
  ------------------------------------------------------------------------------------------
  WSL49                     1638.943         0.000         0.000         0.000         0.000
  WSL1465                    715.543         0.000         0.000         0.000         0.000
  WSL1472                   1526.799         0.000         0.000         0.000         0.000
  WSL1475                   1657.706         0.000         0.000         0.000         0.000
  WSL1476                    110.586         0.000         0.000         0.000         0.000
  WSL1477                    108.434         0.000         0.000         0.000         0.000
  WSL1490                    701.562         0.000         0.000         0.000         0.000
  WSL1491                    705.554         0.000         0.000         0.000         0.000
  WSL1492                    711.969         0.000         0.000         0.000         0.000
  WSL1507                      0.665         0.000         0.000         0.000         0.000
  WSL1508                     68.790         0.000         0.000         0.000         0.000
  WSL1512                     69.155         0.000         0.000         0.000         0.000
  WSL1513                     70.616         0.000         0.000         0.000         0.000
  WSL1515                    802.324         0.000         0.000         0.000         0.000
  WSL1516                    109.195         0.000         0.000         0.000         0.000
  WSL1518                    105.923         0.000         0.000         0.000         0.000
  WSL1519                    106.551         0.000         0.000         0.000         0.000
  WSL1521                    107.596         0.000         0.000         0.000         0.000
  WSL1543                    106.167         0.000         0.000         0.000         0.000
  WSL1961                    688.875         0.000         0.000         0.000         0.000
  WSL1964                    697.645         0.000         0.000         0.000         0.000
  WSL2010                    490.484         0.000         0.000         0.000         0.000
  WSL2011                    495.739         0.000         0.000         0.000         0.000
  WSL2012                    501.238         0.000         0.000         0.000         0.000
  WSL2013                    526.446         0.000         0.000         0.000         0.000
  WSL2014                    672.057         0.000         0.000         0.000         0.000
  WSL2015                    673.434         0.000         0.000         0.000         0.000
  WSL2016                    746.458         0.000         0.000         0.000         0.000
  WSL2017                    748.903         0.000         0.000         0.000         0.000
  WSL2018                    794.868         0.000         0.000         0.000         0.000
  WSL2019                    796.891         0.000         0.000         0.000         0.000
  WSL2028                    485.626         0.000         0.000         0.000         0.000
  WSL2029                    754.082         0.000         0.000         0.000         0.000
  WSL2038                     42.913         0.000         0.000         0.000         0.000
  WSL2039                     51.537         0.000         0.000         0.000         0.000
  WSL2041                     47.242         0.000         0.000         0.000         0.000
  WSL2294                    464.307         0.000         0.000         0.000         0.000
  WSL2295                    465.382         0.000         0.000         0.000         0.000
  WSL2296                    474.735         0.000         0.000         0.000         0.000
  WSL2297                    478.375         0.000         0.000         0.000         0.000
  WSL2298                    469.054         0.000         0.000         0.000         0.000
  WSL2301                    479.758         0.000         0.000         0.000         0.000
  WSL2302                    484.917         0.000         0.000         0.000         0.000
  WSL2441                    463.269         0.000         0.000         0.000         0.000
  WSL2442                    294.265         0.000         0.000         0.000         0.000
  WSL2443                    292.750         0.000         0.000         0.000         0.000
  WSL2444                    289.512         0.000         0.000         0.000         0.000
  WSL2446                    287.454         0.000         0.000         0.000         0.000
  WSL2447                    284.136         0.000         0.000         0.000         0.000
  WSL2448                    280.560         0.000         0.000         0.000         0.000
  WSL2449                    276.904         0.000         0.000         0.000         0.000
  WSL2450                    274.400         0.000         0.000         0.000         0.000
  WSL2451                    273.072         0.000         0.000         0.000         0.000
  WSL2452                    271.452         0.000         0.000         0.000         0.000
  WSL2454                    267.300         0.000         0.000         0.000         0.000
  WSL2478                    265.692         0.000         0.000         0.000         0.000
  WSL2479                    226.939         0.000         0.000         0.000         0.000
  WSL2480                    223.742         0.000         0.000         0.000         0.000
  WSL2482                    219.228         0.000         0.000         0.000         0.000
  WSL2484                    194.064         0.000         0.000         0.000         0.000
  WSL2493                    297.136         0.000         0.000         0.000         0.000
  WSL2867                    802.968         0.000         0.000         0.000         0.000
  WSL2868                    807.137         0.000         0.000         0.000         0.000
  WSL348                     670.479         0.000         0.000         0.000         0.000
  WSL175                     677.656         0.000         0.000         0.000         0.000
  WSL1467                   1522.776         0.000         0.000         0.000         0.000
  WSL1473                   1530.078         0.000         0.000         0.000         0.000
  XRpipe                     691.148         0.000         0.000         0.000         0.000
  8                            0.000         0.000         0.000         0.000         0.000
  19                           0.000         0.000         0.000         0.000         0.000
  17                           0.000         0.000         0.000         0.000         0.000
  4                            0.000         0.000         0.000         0.000         0.000
  2                         1670.398         0.000         0.000         0.000         0.000
  XR-Pump-1                  188.335         0.000         0.000         0.000         0.000
  XR-Pump-3                  177.397         0.000         0.000         0.000         0.000
  XR-Pump-2                  188.021         0.000         0.000         0.000         0.000
  XR-Pump-4                  123.208         0.000         0.000         0.000         0.000
  CC-Pump-1                  142.640         0.000         0.000         0.000         0.000
  CC-Pump-2                    0.000         0.000         0.000         0.000         0.000
  JK-Pump-1                    0.000         0.000         0.000         0.000         0.000
  JK-Pump-2                    0.000         0.000         0.000         0.000         0.000
  

  Analysis begun on:  Tue Dec 17 17:13:10 2019
  Analysis ended on:  Tue Dec 17 17:13:10 2019
  Total elapsed time: < 1 sec