
  EPA STORM WATER MANAGEMENT MODEL - VERSION 5.1 (Build 5.3.0.dev0)
  --------------------------------------------------------------

  
  *********************************************************
  NOTE: The summary statistics displayed in this report are
  based on results found at every computational time step,  
  not just on results from each reporting time step.
  *********************************************************
  
  ****************
  Analysis Options
  ****************
  Flow Units ............... MLD
  Process Models:
    Rainfall/Runoff ........ YES
    RDII ................... NO
    Snowmelt ............... NO
    Groundwater ............ NO
    Flow Routing ........... YES
    Ponding Allowed ........ NO
    Water Quality .......... YES
  Infiltration Method ...... GREEN_AMPT
  Flow Routing Method ...... DYNWAVE
  Surcharge Method ......... EXTRAN
  Starting Date ............ 08/28/2015 08:00:00
  Ending Date .............. 08/28/2015 12:00:00
  Antecedent Dry Days ...... 4.0
  Report Time Step ......... 00:01:00
  Wet Time Step ............ 00:01:00
  Dry Time Step ............ 00:01:00
  Routing Time Step ........ 5.00 sec
  Variable Time Step ....... YES
  Maximum Trials ........... 8
  Number of Threads ........ 1
  Head Tolerance ........... 0.001500 m
  
  
  **************************        Volume         Depth
  Runoff Quantity Continuity     hectare-m            mm
  **************************     ---------       -------
  Total Precipitation ......         5.454        19.336
  Evaporation Loss .........         0.000         0.000
  Infiltration Loss ........         2.330         8.259
  Surface Runoff ...........         1.400         4.962
  Final Storage ............         1.728         6.125
  Continuity Error (%) .....        -0.058
  
  
  **************************           COD         NH3-N            TN            TP            SS
  Runoff Quality Continuity             kg            kg            kg            kg            kg
  **************************    ----------    ----------    ----------    ----------    ----------
  Initial Buildup ..........     13074.240         0.000         0.000         0.000         0.000
  Surface Buildup ..........       108.084         0.000         0.000         0.000         0.000
  Wet Deposition ...........         0.000         0.000         0.000         0.000         0.000
  Sweeping Removal .........         0.000         0.000         0.000         0.000         0.000
  Infiltration Loss ........       176.614         0.000         0.000         0.000         0.000
  BMP Removal ..............         0.000         0.000         0.000         0.000         0.000
  Surface Runoff ...........      2441.238         0.000         0.000         0.000         0.000
  Remaining Buildup ........     10561.546         0.000         0.000         0.000         0.000
  Continuity Error (%) .....         0.022         0.000         0.000         0.000         0.000
  
  
  **************************        Volume        Volume
  Flow Routing Continuity        hectare-m      10^6 ltr
  **************************     ---------     ---------
  Dry Weather Inflow .......         0.000         0.000
  Wet Weather Inflow .......         1.395        13.955
  Groundwater Inflow .......         0.000         0.000
  RDII Inflow ..............         0.000         0.000
  External Inflow ..........         0.561         5.611
  External Outflow .........         1.070        10.698
  Flooding Loss ............         0.825         8.255
  Evaporation Loss .........         0.000         0.000
  Exfiltration Loss ........         0.000         0.000
  Initial Stored Volume ....         0.000         0.000
  Final Stored Volume ......         0.106         1.058
  Continuity Error (%) .....        -2.270
  
  
  **************************           COD         NH3-N            TN            TP            SS
  Quality Routing Continuity            kg            kg            kg            kg            kg
  **************************    ----------    ----------    ----------    ----------    ----------
  Dry Weather Inflow .......         0.000         0.000         0.000         0.000         0.000
  Wet Weather Inflow .......      2436.026         0.000         0.000         0.000         0.000
  Groundwater Inflow .......         0.000         0.000         0.000         0.000         0.000
  RDII Inflow ..............         0.000         0.000         0.000         0.000         0.000
  External Inflow ..........       937.072         0.000         0.000         0.000         0.000
  External Outflow .........      1787.360         0.000         0.000         0.000         0.000
  Flooding Loss ............      1409.627         0.000         0.000         0.000         0.000
  Exfiltration Loss ........         0.000         0.000         0.000         0.000         0.000
  Mass Reacted .............         0.000         0.000         0.000         0.000         0.000
  Initial Stored Mass ......         0.000         0.000         0.000         0.000         0.000
  Final Stored Mass ........       126.633         0.000         0.000         0.000         0.000
  Continuity Error (%) .....         1.467         0.000         0.000         0.000         0.000
  
  
  *************************
  Highest Continuity Errors
  *************************
  Node WS02003099 (1.17%)
  
  
  ***************************
  Time-Step Critical Elements
  ***************************
  Link WSL2448 (58.70%)
  Link WSL1477 (17.78%)
  Link WSL1516 (16.20%)
  Link WSL2867 (4.38%)
  
  
  ********************************
  Highest Flow Instability Indexes
  ********************************
  Link WSL1477 (118)
  Link WSL1516 (117)
  Link WSL1515 (24)
  Link WSL2867 (19)
  Link XRpipe (19)
  
  
  *************************
  Routing Time Step Summary
  *************************
  Minimum Time Step           :     0.89 sec
  Average Time Step           :     2.51 sec
  Maximum Time Step           :     5.00 sec
  Percent in Steady State     :     0.00
  Average Iterations per Step :     3.28
  Percent Not Converging      :    11.99
  
  
  ***************************
  Subcatchment Runoff Summary
  ***************************
  
  ------------------------------------------------------------------------------------------------------------------------------
                            Total      Total      Total      Total     Imperv       Perv      Total       Total     Peak  Runoff
                           Precip      Runon       Evap      Infil     Runoff     Runoff     Runoff      Runoff   Runoff   Coeff
  Subcatchment                 mm         mm         mm         mm         mm         mm         mm    10^6 ltr      MLD
  ------------------------------------------------------------------------------------------------------------------------------
  1                         19.34      22.46       0.00       9.68       9.93       9.81      19.73        0.24     5.18   0.472
  2                         19.34       0.00       0.00       7.81       4.63       1.88       6.51        0.22     5.72   0.337
  3                         19.34       0.00       0.00       7.86       4.58       1.58       6.16        0.31     8.04   0.319
  4                         19.34       0.00       0.00       7.78       4.66       2.06       6.72        0.18     4.71   0.348
  5                         19.34      16.02       0.00       9.42       8.46       7.17      15.64        0.27     6.13   0.442
  6                         19.34       0.00       0.00       7.85       4.58       1.60       6.18        0.31     7.83   0.320
  7                         19.34       0.00       0.00       8.31       5.31       0.00       5.31        8.50   166.15   0.275
  8                         19.34       0.00       0.00       7.84       4.60       1.71       6.31        0.27     6.90   0.326
  9                         19.34       6.23       0.00       8.59       6.04       3.04       9.08        0.34     8.30   0.355
  17                        19.34       0.00       0.00       7.82       4.62       1.81       6.43        0.24     6.13   0.333
  18                        19.34       0.00       0.00       7.84       4.60       1.69       6.29        0.27     7.04   0.325
  28                        19.34      20.69       0.00       9.79       9.36       7.13      16.48        0.43     9.28   0.412
  29                        19.34       8.76       0.00       8.66       6.60       4.03      10.64        0.26     6.01   0.378
  30                        19.34      24.61       0.00       9.92      10.61      12.21      22.83        0.21     4.82   0.519
  31                        19.34       0.00       0.00       7.82       4.63       1.84       6.46        0.23     5.97   0.334
  33                        19.34       0.00       0.00       7.61       4.75       3.10       7.85        0.07     1.90   0.406
  34                        19.34      13.97       0.00       9.29       7.95       6.08      14.03        0.29     6.78   0.421
  35                        19.34       0.00       0.00       7.80       4.64       1.96       6.60        0.20     5.24   0.341
  36                        19.34      12.97       0.00       9.35       7.46       3.81      11.26        0.66    14.86   0.349
  39                        19.34       0.00       0.00       7.81       4.63       1.87       6.50        0.22     5.77   0.336
  40                        19.34       3.47       0.00       8.27       5.40       2.43       7.83        0.31     7.62   0.343
  41                        19.34       0.00       0.00       7.74       4.69       2.33       7.02        0.14     3.64   0.363
  42                        19.34       0.00       0.00       7.76       4.67       2.19       6.86        0.16     4.15   0.355
  43                        19.34       0.00       0.00       7.42       4.78       4.08       8.86        0.03     0.93   0.458
  44                        19.34     187.29       0.00      15.12      50.49     109.41     159.90        0.59    11.67   0.774
  45                        19.34       0.00       0.00       7.64       4.74       2.93       7.66        0.08     2.18   0.396
  46                        19.34      10.95       0.00       8.96       7.20       5.01      12.22        0.26     6.19   0.403
  47                        19.34       0.00       0.00       7.65       4.73       2.85       7.58        0.08     2.31   0.392
  48                        19.34       5.32       0.00       8.33       5.94       3.94       9.88        0.16     3.96   0.401
  55                        19.34       7.96       0.00       8.46       6.63       5.82      12.44        0.10     2.63   0.456
  56                        19.34      12.04       0.00       9.06       7.45       5.31      12.76        0.27     6.39   0.407
  57                        19.34       0.00       0.00       7.85       4.58       1.60       6.18        0.31     7.91   0.319
  59                        19.34       0.00       0.00       7.60       4.75       3.14       7.89        0.07     1.84   0.408
  60                        19.34      17.27       0.00       9.11       8.90      10.69      19.60        0.10     2.49   0.535
  61                        19.34       0.00       0.00       7.95       4.31       0.91       5.22        0.94    22.69   0.270
  62                        19.34       0.00       0.00       7.96       4.29       0.89       5.18        0.99    23.72   0.268
  64                        19.34       0.00       0.00       7.66       4.73       2.78       7.50        0.09     2.46   0.388
  
  
  ****************************
  Subcatchment Washoff Summary
  ****************************
  
  ------------------------------------------------------------------------------------------
                                 COD         NH3-N            TN            TP            SS
  Subcatchment                    kg            kg            kg            kg            kg
  ------------------------------------------------------------------------------------------
  1                           39.526         0.000         0.000         0.000         0.000
  2                            0.000         0.000         0.000         0.000         0.000
  3                            0.000         0.000         0.000         0.000         0.000
  4                           33.007         0.000         0.000         0.000         0.000
  5                           82.994         0.000         0.000         0.000         0.000
  6                           53.210         0.000         0.000         0.000         0.000
  7                         1360.676         0.000         0.000         0.000         0.000
  8                           47.281         0.000         0.000         0.000         0.000
  9                           87.523         0.000         0.000         0.000         0.000
  17                          42.290         0.000         0.000         0.000         0.000
  18                          48.141         0.000         0.000         0.000         0.000
  28                         165.814         0.000         0.000         0.000         0.000
  29                          80.456         0.000         0.000         0.000         0.000
  30                          62.970         0.000         0.000         0.000         0.000
  31                          41.219         0.000         0.000         0.000         0.000
  33                          14.031         0.000         0.000         0.000         0.000
  34                          90.930         0.000         0.000         0.000         0.000
  35                          36.484         0.000         0.000         0.000         0.000
  36                         212.673         0.000         0.000         0.000         0.000
  39                          39.960         0.000         0.000         0.000         0.000
  40                          69.181         0.000         0.000         0.000         0.000
  41                          25.907         0.000         0.000         0.000         0.000
  42                          29.322         0.000         0.000         0.000         0.000
  43                           7.112         0.000         0.000         0.000         0.000
  44                         191.507         0.000         0.000         0.000         0.000
  45                          15.966         0.000         0.000         0.000         0.000
  46                          82.852         0.000         0.000         0.000         0.000
  47                          16.905         0.000         0.000         0.000         0.000
  48                          41.253         0.000         0.000         0.000         0.000
  55                          30.624         0.000         0.000         0.000         0.000
  56                          88.186         0.000         0.000         0.000         0.000
  57                          53.710         0.000         0.000         0.000         0.000
  59                          13.659         0.000         0.000         0.000         0.000
  60                          31.683         0.000         0.000         0.000         0.000
  61                         144.624         0.000         0.000         0.000         0.000
  62                         150.742         0.000         0.000         0.000         0.000
  64                          17.942         0.000         0.000         0.000         0.000
  ------------------------------------------------------------------------------------------
  System                    3550.359         0.000         0.000         0.000         0.000
  
  
  ******************
  Node Depth Summary
  ******************
  
  ---------------------------------------------------------------------------------
                                 Average  Maximum  Maximum  Time of Max    Reported
                                   Depth    Depth      HGL   Occurrence   Max Depth
  Node                 Type       Meters   Meters   Meters  days hr:min      Meters
  ---------------------------------------------------------------------------------
  WS01000070           JUNCTION     0.00     0.00     0.00     0  00:00        0.00
  WS01000323           JUNCTION     0.00     0.00     0.00     0  00:00        0.00
  WS01000533           JUNCTION     0.00     0.00     6.86     0  00:00        0.00
  WS01005172           JUNCTION     0.00     0.00     0.00     0  00:00        0.00
  WS01005181           JUNCTION     0.00     0.00     0.00     0  00:00        0.00
  WS01009841           JUNCTION     0.00     0.00     0.00     0  00:00        0.00
  WS02000078           JUNCTION     0.00     0.00     0.00     0  00:00        0.00
  WS02000112           JUNCTION     0.00     0.00     0.00     0  00:00        0.00
  WS02000136           JUNCTION     0.00     0.00     0.00     0  00:00        0.00
  WS02001211           JUNCTION     0.43     0.50     5.34     0  02:53        0.50
  WS02001212           JUNCTION     0.37     0.48     5.28     0  02:57        0.48
  WS02001213           JUNCTION     0.47     0.58     5.28     0  02:59        0.58
  WS02003059           JUNCTION     0.45     0.62     5.27     0  02:51        0.61
  WS02003060           JUNCTION     0.51     0.71     5.26     0  02:55        0.70
  WS02003066           JUNCTION     0.21     0.37     5.67     0  02:53        0.36
  WS02003067           JUNCTION     0.37     0.61     5.93     0  02:55        0.61
  WS02003071           JUNCTION     0.57     0.78     5.18     0  02:49        0.76
  WS02003072           JUNCTION     0.48     0.71     5.08     0  03:33        0.68
  WS02003073           JUNCTION     0.55     0.87     5.11     0  02:47        0.87
  WS02003076           JUNCTION     0.50     0.75     4.98     0  03:32        0.75
  WS02003077           JUNCTION     0.08     0.14     5.15     0  03:05        0.14
  WS02003078           JUNCTION     0.05     0.09     6.99     0  03:05        0.09
  WS02003079           JUNCTION     0.15     0.28     7.19     0  03:04        0.28
  WS02003093           JUNCTION     0.04     0.12     7.46     0  03:01        0.12
  WS02003094           JUNCTION     0.13     0.24     7.46     0  03:01        0.24
  WS02003098           JUNCTION     0.09     0.18     7.35     0  03:03        0.18
  WS02003099           JUNCTION     0.17     0.32     7.36     0  03:03        0.32
  WS02003102           JUNCTION     0.15     0.30     7.33     0  03:03        0.30
  WS02003103           JUNCTION     0.17     0.32     7.29     0  03:04        0.32
  WS02003104           JUNCTION     0.17     0.31     7.27     0  03:04        0.31
  WS02003106           JUNCTION     0.17     0.31     7.24     0  03:04        0.31
  WS02004050           JUNCTION     0.35     0.48     4.70     0  02:57        0.47
  WS02004053           JUNCTION     0.00     0.00     0.00     0  00:00        0.00
  WS02004136           JUNCTION     0.17     0.18     6.91     0  01:20        0.18
  WS02004139           JUNCTION     0.35     0.40     5.36     0  02:54        0.40
  WS02004401           JUNCTION     0.37     0.60     6.60     0  03:31        0.60
  WS02004402           JUNCTION     0.38     0.61     6.57     0  03:32        0.61
  WS02004403           JUNCTION     0.37     0.60     6.53     0  03:32        0.60
  WS02004404           JUNCTION     0.45     0.69     6.54     0  03:32        0.69
  WS02004405           JUNCTION     0.45     0.68     6.52     0  03:32        0.68
  WS02004406           JUNCTION     0.43     0.65     6.48     0  03:32        0.65
  WS02004407           JUNCTION     0.41     0.62     6.42     0  02:52        0.62
  WS02004409           JUNCTION     0.39     0.60     6.37     0  02:51        0.60
  WS02004410           JUNCTION     0.38     0.58     6.30     0  02:51        0.58
  WS02004411           JUNCTION     0.36     0.54     6.22     0  02:53        0.54
  WS02004412           JUNCTION     0.31     0.48     6.12     0  02:53        0.48
  WS02004413           JUNCTION     0.32     0.51     5.98     0  02:53        0.51
  WS02004997           JUNCTION     5.48     6.90     8.51     0  01:49        6.90
  WS02005192           JUNCTION     0.18     0.39     8.26     0  03:27        0.39
  WS02005193           JUNCTION     0.21     0.44     8.26     0  03:26        0.44
  WS02005196           JUNCTION     0.19     0.41     8.26     0  03:26        0.41
  WS02006109           JUNCTION     0.41     0.66     7.28     0  03:29        0.66
  WS02006110           JUNCTION     0.38     0.59     7.19     0  03:29        0.59
  WS02006111           JUNCTION     0.21     0.35     6.93     0  03:30        0.35
  WS02006112           JUNCTION     0.39     0.61     6.73     0  03:30        0.61
  WS02006113           JUNCTION     0.32     0.50     7.09     0  03:29        0.50
  WS02006115           JUNCTION     0.35     0.57     6.67     0  03:31        0.57
  WS02006116           JUNCTION     0.37     0.60     6.64     0  03:31        0.60
  WS02006183           JUNCTION     0.00     0.00     0.00     0  00:00        0.00
  WS02006228           JUNCTION     0.42     0.69     7.34     0  03:29        0.69
  WS02006229           JUNCTION     0.39     0.67     7.36     0  03:29        0.67
  WS02006230           JUNCTION     0.37     0.68     7.43     0  03:29        0.68
  WS02006231           JUNCTION     0.28     0.56     7.46     0  03:29        0.56
  WS02006232           JUNCTION     0.26     0.49     7.52     0  03:28        0.49
  WS02006234           JUNCTION     0.25     0.46     7.62     0  03:28        0.46
  WS02006235           JUNCTION     0.30     0.53     7.70     0  03:28        0.53
  WS02006238           JUNCTION     0.30     0.54     7.72     0  03:28        0.54
  WS02006239           JUNCTION     0.33     0.59     7.80     0  03:28        0.59
  WS02006242           JUNCTION     0.35     0.64     7.94     0  03:27        0.64
  WS02006240           JUNCTION     0.29     0.56     7.85     0  03:27        0.56
  WS02006243           JUNCTION     0.28     0.57     7.99     0  03:27        0.57
  WS02006245           JUNCTION     0.29     0.57     8.06     0  03:27        0.57
  WS02006247           JUNCTION     0.31     0.60     8.11     0  03:27        0.60
  WS02006248           JUNCTION     0.26     0.55     8.14     0  03:26        0.55
  WS02006249           JUNCTION     0.29     0.58     8.18     0  03:26        0.58
  WS02006251           JUNCTION     0.28     0.58     8.25     0  03:26        0.58
  WS02006253           JUNCTION     0.21     0.46     8.26     0  03:26        0.46
  WS02618401           JUNCTION     0.00     0.00     0.00     0  00:00        0.00
  WS8802               JUNCTION     0.00     0.00     4.38     0  00:00        0.00
  WSA1649              JUNCTION     0.00     0.00     0.00     0  00:00        0.00
  WSF200               JUNCTION     0.20     0.38     5.48     0  02:53        0.34
  XR-Inflow            JUNCTION     5.30     6.55     8.36     0  01:48        6.55
  WS02004114           JUNCTION     5.48     7.09     8.69     0  01:49        7.08
  outfall-2            OUTFALL      0.00     0.00     7.00     0  00:00        0.00
  outfall-5            OUTFALL      0.00     0.00     7.67     0  00:00        0.00
  outfall-14           OUTFALL      0.00     0.00     7.66     0  00:00        0.00
  outfall-16           OUTFALL      0.00     0.00     8.39     0  00:00        0.00
  12                   OUTFALL      0.34     0.47     0.47     0  02:57        0.47
  XR-storage           STORAGE      6.57     8.22     8.72     0  01:48        8.22
  CC-storage           STORAGE      1.40     5.63     8.81     0  02:59        5.63
  JK-storage           STORAGE      3.95     4.80     7.80     0  01:45        4.80
  
  
  *******************
  Node Inflow Summary
  *******************
  
  -------------------------------------------------------------------------------------------------
                                  Maximum  Maximum                  Lateral       Total        Flow
                                  Lateral    Total  Time of Max      Inflow      Inflow     Balance
                                   Inflow   Inflow   Occurrence      Volume      Volume       Error
  Node                 Type           MLD      MLD  days hr:min    10^6 ltr    10^6 ltr     Percent
  -------------------------------------------------------------------------------------------------
  WS01000070           JUNCTION      0.00     0.00     0  00:00           0           0       0.000 ltr
  WS01000323           JUNCTION      0.00     0.00     0  00:00           0           0       0.000 ltr
  WS01000533           JUNCTION      0.00     0.00     0  00:00           0           0       0.000 ltr
  WS01005172           JUNCTION      0.00     0.00     0  00:00           0           0       0.000 ltr
  WS01005181           JUNCTION      0.00     0.00     0  00:00           0           0       0.000 ltr
  WS01009841           JUNCTION      0.00     0.00     0  00:00           0           0       0.000 ltr
  WS02000078           JUNCTION      0.00     0.00     0  00:00           0           0       0.000 ltr
  WS02000112           JUNCTION      0.00     0.00     0  00:00           0           0       0.000 ltr
  WS02000136           JUNCTION      0.00     0.00     0  00:00           0           0       0.000 ltr
  WS02001211           JUNCTION      0.25    34.69     0  02:55      0.0407        4.87       0.532
  WS02001212           JUNCTION      0.21    35.10     0  03:38      0.0346        4.88       0.302
  WS02001213           JUNCTION      0.30    37.68     0  03:00      0.0489        4.92       0.419
  WS02003059           JUNCTION      0.23    37.51     0  03:41      0.0378        4.94       0.551
  WS02003060           JUNCTION      0.16   117.68     0  02:53      0.0252        9.94       0.428
  WS02003066           JUNCTION      0.08    94.99     0  02:52      0.0122        4.99       0.199
  WS02003067           JUNCTION      0.26    75.06     0  02:53      0.0395        4.99       0.229
  WS02003071           JUNCTION      0.35   110.79     0  02:56      0.0538        9.95       0.457
  WS02003072           JUNCTION      0.24   111.85     0  03:34      0.0382        9.94       0.282
  WS02003073           JUNCTION      0.07   125.96     0  02:57     0.00978        10.6       0.245
  WS02003076           JUNCTION      0.72   136.47     0  02:49        0.12        10.7       0.135
  WS02003077           JUNCTION      0.04    13.86     0  03:04      0.0059       0.647       0.142
  WS02003078           JUNCTION      0.03    15.99     0  03:04     0.00419       0.641      -0.122
  WS02003079           JUNCTION      0.04    13.79     0  03:04     0.00561       0.638       0.306
  WS02003093           JUNCTION      0.02     0.11     0  03:00     0.00306     0.00363       0.858
  WS02003094           JUNCTION      8.35     8.35     0  03:01       0.352       0.356       0.916
  WS02003098           JUNCTION      0.02     8.05     0  03:01     0.00293       0.355       0.582
  WS02003099           JUNCTION      0.07     7.86     0  03:02      0.0109       0.364       1.188
  WS02003102           JUNCTION      6.93    13.95     0  03:01       0.271       0.631       0.580
  WS02003103           JUNCTION      0.02    13.76     0  03:01     0.00239        0.63       0.406
  WS02003104           JUNCTION      0.02    13.75     0  03:03     0.00302        0.63       0.339
  WS02003106           JUNCTION      0.05    13.77     0  03:04     0.00728       0.635       0.414
  WS02004050           JUNCTION      0.72   147.74     0  02:56       0.119        10.8       0.675
  WS02004053           JUNCTION      0.00     0.00     0  00:00           0           0       0.000 ltr
  WS02004136           JUNCTION      0.44    32.92     0  01:17      0.0703        4.79       0.062
  WS02004139           JUNCTION      0.38    33.63     0  01:17      0.0619        4.85       0.365
  WS02004401           JUNCTION      0.05    56.02     0  03:31     0.00897        3.64       0.308
  WS02004402           JUNCTION      0.22    56.14     0  03:31      0.0335        3.66       0.281
  WS02004403           JUNCTION      0.23    56.30     0  03:31      0.0349        3.68       0.243
  WS02004404           JUNCTION      0.24    56.48     0  03:32      0.0365        3.71       0.208
  WS02004405           JUNCTION      4.78    57.70     0  03:32        0.19        3.89       0.301
  WS02004406           JUNCTION      9.40    63.01     0  03:32       0.454        4.34       0.422
  WS02004407           JUNCTION      0.11    63.08     0  03:32      0.0171        4.33       0.375
  WS02004409           JUNCTION      6.32    66.01     0  03:33         0.3        4.62       0.310
  WS02004410           JUNCTION      0.15    66.07     0  03:32      0.0226        4.63       0.309
  WS02004411           JUNCTION      0.25    66.43     0  03:33      0.0379        4.65       0.269
  WS02004412           JUNCTION      7.91    72.36     0  02:54        0.32        4.96       0.213
  WS02004413           JUNCTION      0.11    72.96     0  02:53      0.0172        4.96       0.206
  WS02004997           JUNCTION      0.42    41.98     0  01:48      0.0693         4.8       0.807
  WS02005192           JUNCTION      8.00     8.00     0  03:01       0.326       0.327       0.209
  WS02005193           JUNCTION      0.09     8.79     0  03:27      0.0146        0.37       0.639
  WS02005196           JUNCTION      0.12     8.08     0  03:01       0.019       0.349       0.550
  WS02006109           JUNCTION      0.08    53.18     0  03:29      0.0135        3.24       0.412
  WS02006110           JUNCTION      0.08    53.26     0  03:29      0.0132        3.24       0.377
  WS02006111           JUNCTION      0.24    55.83     0  03:29      0.0366        3.59       0.128
  WS02006112           JUNCTION      0.18    55.96     0  03:29      0.0273        3.61       0.329
  WS02006113           JUNCTION      8.18    55.65     0  03:29        0.34        3.56       0.259
  WS02006115           JUNCTION      0.08    55.95     0  03:30      0.0134        3.62       0.338
  WS02006116           JUNCTION      0.24    56.04     0  03:31       0.036        3.64       0.321
  WS02006183           JUNCTION      0.00     0.00     0  00:00           0           0       0.000 ltr
  WS02006228           JUNCTION     11.83    53.11     0  03:29       0.618        3.23       0.306
  WS02006229           JUNCTION      0.13    44.19     0  03:29        0.02        2.62       0.318
  WS02006230           JUNCTION      0.07    44.07     0  03:29      0.0116        2.61       0.336
  WS02006231           JUNCTION      0.13    44.03     0  03:28      0.0205         2.6       0.201
  WS02006232           JUNCTION      5.80    43.94     0  03:28       0.233        2.59       0.196
  WS02006234           JUNCTION      0.14    42.29     0  03:28      0.0216        2.36       0.201
  WS02006235           JUNCTION      0.14    42.19     0  03:28      0.0223        2.34       0.127
  WS02006238           JUNCTION      0.15    42.08     0  03:28      0.0235        2.32       0.176
  WS02006239           JUNCTION      0.11    41.98     0  03:27      0.0174        2.31       0.312
  WS02006242           JUNCTION      0.08    41.91     0  03:27      0.0129         2.3       0.402
  WS02006240           JUNCTION      0.06    41.93     0  03:27     0.00992         2.3       0.298
  WS02006243           JUNCTION      0.17    41.89     0  03:27      0.0269        2.29       0.288
  WS02006245           JUNCTION      0.07    41.79     0  03:26      0.0113        2.27       0.230
  WS02006247           JUNCTION      5.32    41.76     0  03:22       0.263        2.26       0.218
  WS02006248           JUNCTION      0.12    38.56     0  03:26      0.0192           2       0.185
  WS02006249           JUNCTION      0.19    38.72     0  03:22      0.0286        1.99       0.289
  WS02006251           JUNCTION      2.69    38.83     0  03:21       0.113        1.97       0.298
  WS02006253           JUNCTION      0.11    37.77     0  03:21      0.0173        1.87       0.129
  WS02618401           JUNCTION      0.00     0.00     0  00:00           0           0       0.000 ltr
  WS8802               JUNCTION      0.00     0.00     0  00:00           0           0       0.000 ltr
  WSA1649              JUNCTION      0.00     0.00     0  00:00           0           0       0.000 ltr
  WSF200               JUNCTION      0.14    86.04     0  02:53      0.0216        5.01       0.004
  XR-Inflow            JUNCTION    183.70   183.70     0  03:01        11.8        11.8       0.193
  WS02004114           JUNCTION      0.57    42.48     0  01:48      0.0916        4.86       0.467
  outfall-2            OUTFALL       0.00     0.00     0  00:00           0           0       0.000 ltr
  outfall-5            OUTFALL       0.00     0.00     0  00:00           0           0       0.000 ltr
  outfall-14           OUTFALL       0.00     0.00     0  00:00           0           0       0.000 ltr
  outfall-16           OUTFALL       0.00     0.00     0  00:00           0           0       0.000 ltr
  12                   OUTFALL       0.00   125.47     0  02:57           0        10.7       0.000
  XR-storage           STORAGE       0.00    42.41     0  01:48           0        4.83       0.965
  CC-storage           STORAGE      24.15    24.15     0  03:01        1.23        1.23     -25.865
  JK-storage           STORAGE      24.62    24.62     0  03:01        1.16        1.16      -0.003
  
  
  **********************
  Node Surcharge Summary
  **********************
  
  Surcharging occurs when water rises above the top of the highest conduit.
  ---------------------------------------------------------------------
                                               Max. Height   Min. Depth
                                   Hours       Above Crown    Below Rim
  Node                 Type      Surcharged         Meters       Meters
  ---------------------------------------------------------------------
  WS01000070           JUNCTION        4.00          0.000        0.000
  WS01000323           JUNCTION        4.00          0.000        0.000
  WS01000533           JUNCTION        4.00          0.000        2.147
  WS01005172           JUNCTION        4.00          0.000        0.000
  WS01005181           JUNCTION        4.00          0.000        0.000
  WS01009841           JUNCTION        4.00          0.000        0.000
  WS02000078           JUNCTION        4.00          0.000        0.000
  WS02000112           JUNCTION        4.00          0.000        0.000
  WS02000136           JUNCTION        4.00          0.000        0.000
  WS02004053           JUNCTION        4.00          0.000        0.000
  WS02004997           JUNCTION        3.88          6.000        0.000
  WS02006183           JUNCTION        4.00          0.000        0.000
  WS02618401           JUNCTION        4.00          0.000        0.000
  WS8802               JUNCTION        4.00          0.000        4.942
  WSA1649              JUNCTION        4.00          0.000        0.000
  XR-Inflow            JUNCTION        3.87          5.650        0.000
  WS02004114           JUNCTION        3.88          6.187        0.328
  XR-storage           STORAGE         3.96          7.320        0.000
  
  
  *********************
  Node Flooding Summary
  *********************
  
  Flooding refers to all water that overflows a node, whether it ponds or not.
  --------------------------------------------------------------------------
                                                             Total   Maximum
                                 Maximum   Time of Max       Flood    Ponded
                        Hours       Rate    Occurrence      Volume     Depth
  Node                 Flooded       MLD   days hr:min    10^6 ltr    Meters
  --------------------------------------------------------------------------
  WS02004997              0.01      3.28      0  01:49       0.000     0.000
  XR-Inflow               2.18    152.12      0  03:01       7.062     0.000
  XR-storage              0.01      6.40      0  01:48       0.000     0.500
  CC-storage              0.24     24.14      0  03:01       0.168     0.000
  JK-storage              2.25     24.61      0  03:01       1.025     0.000
  
  
  **********************
  Storage Volume Summary
  **********************
  
  --------------------------------------------------------------------------------------------------
                         Average     Avg  Evap Exfil       Maximum     Max    Time of Max    Maximum
                          Volume    Pcnt  Pcnt  Pcnt        Volume    Pcnt     Occurrence    Outflow
  Storage Unit           1000 m3    Full  Loss  Loss       1000 m3    Full    days hr:min        MLD
  --------------------------------------------------------------------------------------------------
  XR-storage               0.053      84     0     0         0.063     100       0  01:48      32.48
  CC-storage               0.040      25     0     0         0.159     100       0  02:59      34.56
  JK-storage               0.112      82     0     0         0.136     100       0  01:45       0.00
  
  
  ***********************
  Outfall Loading Summary
  ***********************
  
  ---------------------------------------------------------------------------------------------------------------------------------
                         Flow       Avg       Max       Total         Total         Total         Total         Total         Total
                         Freq      Flow      Flow      Volume           COD         NH3-N            TN            TP            SS
  Outfall Node           Pcnt       MLD       MLD    10^6 ltr            kg            kg            kg            kg            kg
  ---------------------------------------------------------------------------------------------------------------------------------
  outfall-2              0.00      0.00      0.00       0.000         0.000         0.000         0.000         0.000         0.000
  outfall-5              0.00      0.00      0.00       0.000         0.000         0.000         0.000         0.000         0.000
  outfall-14             0.00      0.00      0.00       0.000         0.000         0.000         0.000         0.000         0.000
  outfall-16             0.00      0.00      0.00       0.000         0.000         0.000         0.000         0.000         0.000
  12                    99.98     74.41    125.47      10.698      1787.568         0.000         0.000         0.000         0.000
  ---------------------------------------------------------------------------------------------------------------------------------
  System                20.00     74.41    125.47      10.698      1787.568         0.000         0.000         0.000         0.000
  
  
  ********************
  Link Flow Summary
  ********************
  
  -----------------------------------------------------------------------------
                                 Maximum  Time of Max   Maximum    Max/    Max/
                                  |Flow|   Occurrence   |Veloc|    Full    Full
  Link                 Type          MLD  days hr:min     m/sec    Flow   Depth
  -----------------------------------------------------------------------------
  WSL49                CONDUIT    135.75     0  02:49      2.37    1.69    0.65
  WSL1465              CONDUIT     41.20     0  03:40      1.65    0.37    0.65
  WSL1472              CONDUIT    111.64     0  03:34      1.94    1.27    0.60
  WSL1475              CONDUIT    147.02     0  02:56      2.92    1.57    0.42
  WSL1476              CONDUIT     13.84     0  03:05      0.61    0.07    0.58
  WSL1477              CONDUIT     15.97     0  03:04      2.45    0.63    0.31
  WSL1490              CONDUIT     34.89     0  03:38      1.38    0.56    0.48
  WSL1491              CONDUIT     37.40     0  03:00      1.44    0.22    0.53
  WSL1492              CONDUIT     37.29     0  03:41      1.38    0.57    0.60
  WSL1507              CONDUIT      0.17     0  03:02      0.13    0.00    0.23
  WSL1508              CONDUIT      8.04     0  03:01      0.91    0.23    0.26
  WSL1512              CONDUIT      7.80     0  03:02      0.61    0.05    0.25
  WSL1513              CONDUIT      7.99     0  03:03      0.53    0.47    0.38
  WSL1515              CONDUIT     94.92     0  02:52      2.72    0.93    0.39
  WSL1516              CONDUIT     13.83     0  03:04      4.22    0.05    0.19
  WSL1518              CONDUIT     13.75     0  03:01      0.89    0.27    0.39
  WSL1519              CONDUIT     13.73     0  03:04      0.89    0.34    0.39
  WSL1521              CONDUIT     13.76     0  03:04      0.94    0.40    0.37
  WSL1543              CONDUIT     13.73     0  03:03      0.86    0.43    0.40
  WSL1961              CONDUIT     33.24     0  01:17      3.05    0.07    0.29
  WSL1964              CONDUIT     34.44     0  02:55      1.38    0.19    0.37
  WSL2010              CONDUIT     56.12     0  03:31      1.31    0.72    0.61
  WSL2011              CONDUIT     56.28     0  03:32      1.22    0.36    0.64
  WSL2012              CONDUIT     56.48     0  03:32      1.14    0.86    0.69
  WSL2013              CONDUIT     57.73     0  03:32      1.20    1.43    0.67
  WSL2014              CONDUIT     62.98     0  03:32      1.39    1.01    0.64
  WSL2015              CONDUIT     63.12     0  03:33      1.47    0.85    0.61
  WSL2016              CONDUIT     65.95     0  03:32      1.61    0.76    0.59
  WSL2017              CONDUIT     66.23     0  03:33      1.75    0.81    0.56
  WSL2018              CONDUIT     72.86     0  02:53      2.23    0.43    0.50
  WSL2019              CONDUIT     74.83     0  02:53      2.12    0.44    0.56
  WSL2028              CONDUIT     55.96     0  03:31      1.32    0.60    0.60
  WSL2029              CONDUIT     66.56     0  03:34      2.00    0.84    0.51
  WSL2038              CONDUIT      7.98     0  03:01      0.87    0.40    0.66
  WSL2039              CONDUIT     10.46     0  03:27      1.27    0.54    0.75
  WSL2041              CONDUIT      8.71     0  03:27      0.99    0.43    0.71
  WSL2294              CONDUIT     53.18     0  03:29      1.45    1.79    0.79
  WSL2295              CONDUIT     53.26     0  03:29      1.69    2.39    0.68
  WSL2296              CONDUIT     55.81     0  03:29      2.07    0.31    0.60
  WSL2297              CONDUIT     55.87     0  03:30      1.36    1.07    0.59
  WSL2298              CONDUIT     55.64     0  03:29      2.39    2.56    0.53
  WSL2301              CONDUIT     55.85     0  03:31      1.38    0.51    0.58
  WSL2302              CONDUIT     55.97     0  03:31      1.34    0.69    0.60
  WSL2441              CONDUIT     53.10     0  03:29      1.36    1.36    0.85
  WSL2442              CONDUIT     44.08     0  03:29      1.36    1.13    0.96
  WSL2443              CONDUIT     44.01     0  03:29      1.51    0.69    0.88
  WSL2444              CONDUIT     43.91     0  03:28      1.79    0.70    0.75
  WSL2446              CONDUIT     42.28     0  03:28      1.80    0.73    0.68
  WSL2447              CONDUIT     42.18     0  03:28      1.68    2.17    0.71
  WSL2448              CONDUIT     42.07     0  03:28      1.54    1.18    0.77
  WSL2449              CONDUIT     41.96     0  03:28      1.46    1.46    0.81
  WSL2450              CONDUIT     41.89     0  03:27      1.43    0.87    0.82
  WSL2451              CONDUIT     41.87     0  03:27      1.38    2.73    0.86
  WSL2452              CONDUIT     41.84     0  03:27      1.38    0.80    0.87
  WSL2454              CONDUIT     41.75     0  03:27      1.49    0.97    0.82
  WSL2478              CONDUIT     41.72     0  03:26      1.46    1.47    0.83
  WSL2479              CONDUIT     38.53     0  03:26      1.41    0.73    0.82
  WSL2480              CONDUIT     38.45     0  03:26      1.42    1.78    0.81
  WSL2482              CONDUIT     38.57     0  03:22      1.37    1.00    0.83
  WSL2484              CONDUIT     37.65     0  02:21      1.51    0.53    0.74
  WSL2493              CONDUIT     44.20     0  03:29      1.16    0.74    0.85
  WSL2867              CONDUIT     85.91     0  02:53      3.79    0.18    0.30
  WSL2868              CONDUIT     83.10     0  02:53      2.05    0.16    0.44
  WSL348               CONDUIT     41.56     0  01:48      1.86    0.38    1.00
  WSL175               CONDUIT     41.91     0  01:48      2.30    1.41    1.00
  WSL1467              CONDUIT    110.48     0  02:56      1.81    0.59    0.61
  WSL1473              CONDUIT    118.94     0  03:33      2.14    0.49    0.63
  XRpipe               CONDUIT     42.41     0  01:48      2.53    0.10    1.00
  8                    CONDUIT      0.00     0  00:00      0.00    0.00    0.00
  19                   CONDUIT      0.00     0  00:00      0.00    0.00    0.00
  17                   CONDUIT      0.00     0  00:00      0.00    0.00    0.00
  4                    CONDUIT      0.00     0  00:00      0.00    0.00    0.00
  2                    CONDUIT    125.47     0  02:57      3.98    0.45    0.47
  XR-Pump-1            PUMP         8.12     0  00:08              1.00
  XR-Pump-3            PUMP         8.12     0  00:09              1.00
  XR-Pump-2            PUMP         8.12     0  00:09              1.00
  XR-Pump-4            PUMP         8.12     0  01:17              1.00
  CC-Pump-1            PUMP        17.28     0  02:20              1.00
  CC-Pump-2            PUMP        17.28     0  02:20              1.00
  JK-Pump-1            PUMP         0.00     0  00:00              0.00
  JK-Pump-2            PUMP         0.00     0  00:00              0.00
  
  
  ***************************
  Flow Classification Summary
  ***************************
  
  -------------------------------------------------------------------------------------
                      Adjusted    ---------- Fraction of Time in Flow Class ---------- 
                       /Actual         Up    Down  Sub   Sup   Up    Down  Norm  Inlet 
  Conduit               Length    Dry  Dry   Dry   Crit  Crit  Crit  Crit  Ltd   Ctrl  
  -------------------------------------------------------------------------------------
  WSL49                   1.00   0.00  0.00  0.00  0.99  0.01  0.00  0.00  0.00  0.00
  WSL1465                 1.00   0.00  0.00  0.00  1.00  0.00  0.00  0.00  0.08  0.00
  WSL1472                 1.00   0.00  0.00  0.00  1.00  0.00  0.00  0.00  0.00  0.00
  WSL1475                 1.00   0.00  0.00  0.00  0.15  0.85  0.00  0.00  0.01  0.00
  WSL1476                 1.00   0.00  0.00  0.00  1.00  0.00  0.00  0.00  1.00  0.00
  WSL1477                 1.00   0.00  0.00  0.00  0.00  1.00  0.00  0.00  0.33  0.00
  WSL1490                 1.00   0.00  0.00  0.00  1.00  0.00  0.00  0.00  0.00  0.00
  WSL1491                 1.00   0.00  0.00  0.00  1.00  0.00  0.00  0.00  0.04  0.00
  WSL1492                 1.00   0.00  0.00  0.00  1.00  0.00  0.00  0.00  0.01  0.00
  WSL1507                 1.00   0.00  0.00  0.00  1.00  0.00  0.00  0.00  0.50  0.00
  WSL1508                 1.00   0.00  0.00  0.00  1.00  0.00  0.00  0.00  0.00  0.00
  WSL1512                 1.00   0.00  0.00  0.00  1.00  0.00  0.00  0.00  0.94  0.00
  WSL1513                 1.00   0.00  0.00  0.00  1.00  0.00  0.00  0.00  0.00  0.00
  WSL1515                 1.00   0.00  0.00  0.00  0.12  0.88  0.00  0.00  0.05  0.00
  WSL1516                 1.00   0.00  0.00  0.00  0.00  1.00  0.00  0.00  1.00  0.00
  WSL1518                 1.00   0.00  0.00  0.00  1.00  0.00  0.00  0.00  0.45  0.00
  WSL1519                 1.00   0.00  0.00  0.00  1.00  0.00  0.00  0.00  0.35  0.00
  WSL1521                 1.00   0.00  0.00  0.00  1.00  0.00  0.00  0.00  0.02  0.00
  WSL1543                 1.00   0.00  0.00  0.00  1.00  0.00  0.00  0.00  0.02  0.00
  WSL1961                 1.00   0.00  0.00  0.00  0.01  0.99  0.00  0.00  0.98  0.00
  WSL1964                 1.00   0.00  0.00  0.00  1.00  0.00  0.00  0.00  0.05  0.00
  WSL2010                 1.00   0.00  0.00  0.00  1.00  0.00  0.00  0.00  0.00  0.00
  WSL2011                 1.00   0.00  0.00  0.00  1.00  0.00  0.00  0.00  0.18  0.00
  WSL2012                 1.00   0.00  0.00  0.00  1.00  0.00  0.00  0.00  0.01  0.00
  WSL2013                 1.00   0.00  0.00  0.00  1.00  0.00  0.00  0.00  0.00  0.00
  WSL2014                 1.00   0.00  0.00  0.00  1.00  0.00  0.00  0.00  0.00  0.00
  WSL2015                 1.00   0.00  0.00  0.00  1.00  0.00  0.00  0.00  0.02  0.00
  WSL2016                 1.00   0.00  0.00  0.00  1.00  0.00  0.00  0.00  0.07  0.00
  WSL2017                 1.00   0.00  0.00  0.00  1.00  0.00  0.00  0.00  0.04  0.00
  WSL2018                 1.00   0.00  0.00  0.00  0.01  0.99  0.00  0.00  0.13  0.00
  WSL2019                 1.00   0.00  0.00  0.00  0.58  0.42  0.00  0.00  0.10  0.00
  WSL2028                 1.00   0.00  0.00  0.00  1.00  0.00  0.00  0.00  0.08  0.00
  WSL2029                 1.00   0.00  0.00  0.00  0.56  0.44  0.00  0.00  0.00  0.00
  WSL2038                 1.00   0.00  0.00  0.00  1.00  0.00  0.00  0.00  0.01  0.00
  WSL2039                 1.00   0.00  0.00  0.00  0.87  0.13  0.00  0.00  0.01  0.00
  WSL2041                 1.00   0.00  0.00  0.00  1.00  0.00  0.00  0.00  0.23  0.00
  WSL2294                 1.00   0.00  0.00  0.00  1.00  0.00  0.00  0.00  0.00  0.00
  WSL2295                 1.00   0.00  0.00  0.00  1.00  0.00  0.00  0.00  0.00  0.00
  WSL2296                 1.00   0.00  0.00  0.00  0.16  0.84  0.00  0.00  0.57  0.00
  WSL2297                 1.00   0.00  0.00  0.00  1.00  0.00  0.00  0.00  0.00  0.00
  WSL2298                 1.00   0.00  0.00  0.00  0.04  0.96  0.00  0.00  0.00  0.00
  WSL2301                 1.00   0.00  0.00  0.00  1.00  0.00  0.00  0.00  0.08  0.00
  WSL2302                 1.00   0.00  0.00  0.00  1.00  0.00  0.00  0.00  0.01  0.00
  WSL2441                 1.00   0.00  0.00  0.00  1.00  0.00  0.00  0.00  0.01  0.00
  WSL2442                 1.00   0.00  0.00  0.00  1.00  0.00  0.00  0.00  0.15  0.00
  WSL2443                 1.00   0.00  0.00  0.00  1.00  0.00  0.00  0.00  0.34  0.00
  WSL2444                 1.00   0.00  0.00  0.00  0.29  0.71  0.00  0.00  0.23  0.00
  WSL2446                 1.00   0.00  0.00  0.00  0.48  0.52  0.00  0.00  0.21  0.00
  WSL2447                 1.00   0.00  0.00  0.00  1.00  0.00  0.00  0.00  0.00  0.00
  WSL2448                 1.00   0.00  0.00  0.00  1.00  0.00  0.00  0.00  0.01  0.00
  WSL2449                 1.00   0.00  0.00  0.00  1.00  0.00  0.00  0.00  0.03  0.00
  WSL2450                 1.00   0.00  0.00  0.00  1.00  0.00  0.00  0.00  0.28  0.00
  WSL2451                 1.00   0.00  0.00  0.00  1.00  0.00  0.00  0.00  0.00  0.00
  WSL2452                 1.00   0.00  0.00  0.00  1.00  0.00  0.00  0.00  0.40  0.00
  WSL2454                 1.00   0.00  0.00  0.00  1.00  0.00  0.00  0.00  0.07  0.00
  WSL2478                 1.00   0.00  0.00  0.00  1.00  0.00  0.00  0.00  0.00  0.00
  WSL2479                 1.00   0.00  0.00  0.00  1.00  0.00  0.00  0.00  0.35  0.00
  WSL2480                 1.00   0.00  0.00  0.00  1.00  0.00  0.00  0.00  0.00  0.00
  WSL2482                 1.00   0.00  0.00  0.00  1.00  0.00  0.00  0.00  0.39  0.00
  WSL2484                 1.00   0.00  0.00  0.00  0.99  0.01  0.00  0.00  0.41  0.00
  WSL2493                 1.00   0.00  0.00  0.00  1.00  0.00  0.00  0.00  0.05  0.00
  WSL2867                 1.00   0.00  0.00  0.00  0.00  1.00  0.00  0.00  0.27  0.00
  WSL2868                 1.00   0.00  0.00  0.00  0.97  0.03  0.00  0.00  0.76  0.00
  WSL348                  1.00   0.00  0.00  0.00  1.00  0.00  0.00  0.00  0.01  0.00
  WSL175                  1.00   0.00  0.00  0.00  1.00  0.00  0.00  0.00  0.00  0.00
  WSL1467                 1.00   0.00  0.00  0.00  1.00  0.00  0.00  0.00  0.05  0.00
  WSL1473                 1.00   0.00  0.00  0.00  1.00  0.00  0.00  0.00  0.05  0.00
  XRpipe                  1.00   0.00  0.00  0.00  1.00  0.00  0.00  0.00  0.00  0.00
  8                       1.00   1.00  0.00  0.00  0.00  0.00  0.00  0.00  0.00  0.00
  19                      1.00   1.00  0.00  0.00  0.00  0.00  0.00  0.00  0.00  0.00
  17                      1.00   1.00  0.00  0.00  0.00  0.00  0.00  0.00  0.00  0.00
  4                       1.00   1.00  0.00  0.00  0.00  0.00  0.00  0.00  0.00  0.00
  2                       1.00   0.00  0.00  0.00  0.00  1.00  0.00  0.00  0.22  0.00
  
  
  *************************
  Conduit Surcharge Summary
  *************************
  
  ----------------------------------------------------------------------------
                                                           Hours        Hours 
                         --------- Hours Full --------   Above Full   Capacity
  Conduit                Both Ends  Upstream  Dnstream   Normal Flow   Limited
  ----------------------------------------------------------------------------
  WSL49                       0.01      0.01      0.01      1.42         0.01
  WSL1472                     0.01      0.01      0.01      1.07         0.01
  WSL1475                     0.01      0.01      0.01      1.04         0.01
  WSL1476                     0.01      0.01      0.03      0.01         0.01
  WSL2013                     0.01      0.01      0.01      1.10         0.01
  WSL2014                     0.01      0.01      0.01      0.04         0.01
  WSL2294                     0.01      0.01      0.01      1.24         0.01
  WSL2295                     0.01      0.01      0.01      1.65         0.01
  WSL2297                     0.01      0.01      0.01      0.14         0.01
  WSL2298                     0.01      0.01      0.01      1.69         0.01
  WSL2441                     0.01      0.01      0.01      0.58         0.01
  WSL2442                     0.01      0.01      0.01      0.22         0.01
  WSL2447                     0.01      0.01      0.01      1.16         0.01
  WSL2448                     0.01      0.01      0.01      0.25         0.01
  WSL2449                     0.01      0.01      0.01      0.69         0.01
  WSL2451                     0.01      0.01      0.01      1.51         0.01
  WSL2478                     0.01      0.01      0.01      0.65         0.01
  WSL2480                     0.01      0.01      0.01      0.80         0.01
  WSL2482                     0.01      0.01      0.01      0.01         0.01
  WSL348                      3.87      3.87      3.88      0.01         0.01
  WSL175                      3.88      3.88      3.88      2.53         2.61
  XRpipe                      3.88      3.88      3.96      0.01         0.01
  
  
  ***************
  Pumping Summary
  ***************
  
  ---------------------------------------------------------------------------------------------------------
                                                  Min       Avg       Max     Total     Power    % Time Off
                        Percent   Number of      Flow      Flow      Flow    Volume     Usage    Pump Curve
  Pump                 Utilized   Start-Ups       MLD       MLD       MLD  10^6 ltr     Kw-hr    Low   High
  ---------------------------------------------------------------------------------------------------------
  XR-Pump-1               96.39           1      0.00      8.12      8.12     1.305      6.77    0.0   56.7
  XR-Pump-3               91.44          18      0.00      8.12      8.12     1.237      6.27    0.0   59.7
  XR-Pump-2               96.26           1      0.00      8.12      8.12     1.303      6.75    0.0   56.7
  XR-Pump-4               64.93          12      0.00      8.12      8.12     0.879      3.59    0.0   84.1
  CC-Pump-1               58.33           4      0.00      8.22     17.28     0.743      8.10    0.0    0.0
  CC-Pump-2               58.33           4      0.00      8.22     17.28     0.743      8.10    0.0    0.0
  JK-Pump-1                0.00           0      0.00      0.00      0.00     0.000      0.00    0.0    0.0
  JK-Pump-2                0.00           0      0.00      0.00      0.00     0.000      0.00    0.0    0.0
  
  
  ***************************
  Link Pollutant Load Summary
  ***************************
  
  ------------------------------------------------------------------------------------------
                                 COD         NH3-N            TN            TP            SS
  Link                            kg            kg            kg            kg            kg
  ------------------------------------------------------------------------------------------
  WSL49                     1759.826         0.000         0.000         0.000         0.000
  WSL1465                    748.218         0.000         0.000         0.000         0.000
  WSL1472                   1617.165         0.000         0.000         0.000         0.000
  WSL1475                   1777.983         0.000         0.000         0.000         0.000
  WSL1476                    141.822         0.000         0.000         0.000         0.000
  WSL1477                    140.095         0.000         0.000         0.000         0.000
  WSL1490                    736.558         0.000         0.000         0.000         0.000
  WSL1491                    740.301         0.000         0.000         0.000         0.000
  WSL1492                    745.668         0.000         0.000         0.000         0.000
  WSL1507                      0.961         0.000         0.000         0.000         0.000
  WSL1508                     89.259         0.000         0.000         0.000         0.000
  WSL1512                     89.437         0.000         0.000         0.000         0.000
  WSL1513                     90.568         0.000         0.000         0.000         0.000
  WSL1515                    863.095         0.000         0.000         0.000         0.000
  WSL1516                    140.861         0.000         0.000         0.000         0.000
  WSL1518                    138.102         0.000         0.000         0.000         0.000
  WSL1519                    138.438         0.000         0.000         0.000         0.000
  WSL1521                    139.328         0.000         0.000         0.000         0.000
  WSL1543                    138.203         0.000         0.000         0.000         0.000
  WSL1961                    725.201         0.000         0.000         0.000         0.000
  WSL1964                    733.340         0.000         0.000         0.000         0.000
  WSL2010                    497.459         0.000         0.000         0.000         0.000
  WSL2011                    502.374         0.000         0.000         0.000         0.000
  WSL2012                    507.650         0.000         0.000         0.000         0.000
  WSL2013                    541.481         0.000         0.000         0.000         0.000
  WSL2014                    708.120         0.000         0.000         0.000         0.000
  WSL2015                    708.844         0.000         0.000         0.000         0.000
  WSL2016                    795.602         0.000         0.000         0.000         0.000
  WSL2017                    797.476         0.000         0.000         0.000         0.000
  WSL2018                    856.403         0.000         0.000         0.000         0.000
  WSL2019                    857.978         0.000         0.000         0.000         0.000
  WSL2028                    492.944         0.000         0.000         0.000         0.000
  WSL2029                    802.131         0.000         0.000         0.000         0.000
  WSL2038                     56.894         0.000         0.000         0.000         0.000
  WSL2039                     64.852         0.000         0.000         0.000         0.000
  WSL2041                     61.024         0.000         0.000         0.000         0.000
  WSL2294                    473.622         0.000         0.000         0.000         0.000
  WSL2295                    474.370         0.000         0.000         0.000         0.000
  WSL2296                    483.475         0.000         0.000         0.000         0.000
  WSL2297                    486.967         0.000         0.000         0.000         0.000
  WSL2298                    477.747         0.000         0.000         0.000         0.000
  WSL2301                    487.848         0.000         0.000         0.000         0.000
  WSL2302                    492.679         0.000         0.000         0.000         0.000
  WSL2441                    472.796         0.000         0.000         0.000         0.000
  WSL2442                    275.193         0.000         0.000         0.000         0.000
  WSL2443                    273.580         0.000         0.000         0.000         0.000
  WSL2444                    270.126         0.000         0.000         0.000         0.000
  WSL2446                    268.036         0.000         0.000         0.000         0.000
  WSL2447                    264.414         0.000         0.000         0.000         0.000
  WSL2448                    260.414         0.000         0.000         0.000         0.000
  WSL2449                    257.234         0.000         0.000         0.000         0.000
  WSL2450                    254.637         0.000         0.000         0.000         0.000
  WSL2451                    253.381         0.000         0.000         0.000         0.000
  WSL2452                    251.766         0.000         0.000         0.000         0.000
  WSL2454                    247.223         0.000         0.000         0.000         0.000
  WSL2478                    245.164         0.000         0.000         0.000         0.000
  WSL2479                    201.908         0.000         0.000         0.000         0.000
  WSL2480                    198.354         0.000         0.000         0.000         0.000
  WSL2482                    194.415         0.000         0.000         0.000         0.000
  WSL2484                    161.449         0.000         0.000         0.000         0.000
  WSL2493                    277.963         0.000         0.000         0.000         0.000
  WSL2867                    863.622         0.000         0.000         0.000         0.000
  WSL2868                    867.537         0.000         0.000         0.000         0.000
  WSL348                     709.813         0.000         0.000         0.000         0.000
  WSL175                     716.251         0.000         0.000         0.000         0.000
  WSL1467                   1614.366         0.000         0.000         0.000         0.000
  WSL1473                   1619.769         0.000         0.000         0.000         0.000
  XRpipe                     729.242         0.000         0.000         0.000         0.000
  8                            0.000         0.000         0.000         0.000         0.000
  19                           0.000         0.000         0.000         0.000         0.000
  17                           0.000         0.000         0.000         0.000         0.000
  4                            0.000         0.000         0.000         0.000         0.000
  2                         1787.568         0.000         0.000         0.000         0.000
  XR-Pump-1                  198.852         0.000         0.000         0.000         0.000
  XR-Pump-3                  187.656         0.000         0.000         0.000         0.000
  XR-Pump-2                  198.538         0.000         0.000         0.000         0.000
  XR-Pump-4                  128.531         0.000         0.000         0.000         0.000
  CC-Pump-1                   48.110         0.000         0.000         0.000         0.000
  CC-Pump-2                   48.110         0.000         0.000         0.000         0.000
  JK-Pump-1                    0.000         0.000         0.000         0.000         0.000
  JK-Pump-2                    0.000         0.000         0.000         0.000         0.000
  

  Analysis begun on:  Thu Jan  2 20:34:31 2020
  Analysis ended on:  Thu Jan  2 20:34:31 2020
  Total elapsed time: < 1 sec