
  EPA STORM WATER MANAGEMENT MODEL - VERSION 5.1 (Build 5.3.0.dev0)
  --------------------------------------------------------------

  
  *********************************************************
  NOTE: The summary statistics displayed in this report are
  based on results found at every computational time step,  
  not just on results from each reporting time step.
  *********************************************************
  
  ****************
  Analysis Options
  ****************
  Flow Units ............... MLD
  Process Models:
    Rainfall/Runoff ........ YES
    RDII ................... NO
    Snowmelt ............... NO
    Groundwater ............ NO
    Flow Routing ........... YES
    Ponding Allowed ........ NO
    Water Quality .......... YES
  Infiltration Method ...... GREEN_AMPT
  Flow Routing Method ...... DYNWAVE
  Surcharge Method ......... EXTRAN
  Starting Date ............ 08/28/2015 08:00:00
  Ending Date .............. 08/28/2015 11:50:00
  Antecedent Dry Days ...... 4.0
  Report Time Step ......... 00:01:00
  Wet Time Step ............ 00:01:00
  Dry Time Step ............ 00:01:00
  Routing Time Step ........ 5.00 sec
  Variable Time Step ....... YES
  Maximum Trials ........... 8
  Number of Threads ........ 1
  Head Tolerance ........... 0.001500 m
  
  
  **************************        Volume         Depth
  Runoff Quantity Continuity     hectare-m            mm
  **************************     ---------       -------
  Total Precipitation ......         0.752        12.164
  Evaporation Loss .........         0.000         0.000
  Infiltration Loss ........         0.409         6.614
  Surface Runoff ...........         0.135         2.185
  Final Storage ............         0.208         3.365
  Continuity Error (%) .....        -0.008
  
  
  **************************           COD         NH3-N            TN            TP            SS
  Runoff Quality Continuity             kg            kg            kg            kg            kg
  **************************    ----------    ----------    ----------    ----------    ----------
  Initial Buildup ..........      2504.640         0.000         0.000         0.000         0.000
  Surface Buildup ..........        19.924         0.000         0.000         0.000         0.000
  Wet Deposition ...........         0.000         0.000         0.000         0.000         0.000
  Sweeping Removal .........         0.000         0.000         0.000         0.000         0.000
  Infiltration Loss ........        41.796         0.000         0.000         0.000         0.000
  BMP Removal ..............         0.000         0.000         0.000         0.000         0.000
  Surface Runoff ...........       137.366         0.000         0.000         0.000         0.000
  Remaining Buildup ........      2344.917         0.000         0.000         0.000         0.000
  Continuity Error (%) .....         0.019         0.000         0.000         0.000         0.000
  
  
  **************************        Volume        Volume
  Flow Routing Continuity        hectare-m      10^6 ltr
  **************************     ---------     ---------
  Dry Weather Inflow .......         0.000         0.000
  Wet Weather Inflow .......         0.135         1.349
  Groundwater Inflow .......         0.000         0.000
  RDII Inflow ..............         0.000         0.000
  External Inflow ..........         0.082         0.822
  External Outflow .........         0.175         1.746
  Flooding Loss ............         0.004         0.040
  Evaporation Loss .........         0.000         0.000
  Exfiltration Loss ........         0.000         0.000
  Initial Stored Volume ....         0.000         0.000
  Final Stored Volume ......         0.046         0.462
  Continuity Error (%) .....        -3.578
  
  
  **************************           COD         NH3-N            TN            TP            SS
  Quality Routing Continuity            kg            kg            kg            kg            kg
  **************************    ----------    ----------    ----------    ----------    ----------
  Dry Weather Inflow .......         0.000         0.000         0.000         0.000         0.000
  Wet Weather Inflow .......       137.096         0.000         0.000         0.000         0.000
  Groundwater Inflow .......         0.000         0.000         0.000         0.000         0.000
  RDII Inflow ..............         0.000         0.000         0.000         0.000         0.000
  External Inflow ..........       137.264         0.000         0.000         0.000         0.000
  External Outflow .........       197.468         0.000         0.000         0.000         0.000
  Flooding Loss ............         4.135         0.000         0.000         0.000         0.000
  Exfiltration Loss ........         0.000         0.000         0.000         0.000         0.000
  Mass Reacted .............         0.000         0.000         0.000         0.000         0.000
  Initial Stored Mass ......         0.000         0.000         0.000         0.000         0.000
  Final Stored Mass ........        55.465         0.000         0.000         0.000         0.000
  Continuity Error (%) .....         6.303         0.000         0.000         0.000         0.000
  
  
  *************************
  Highest Continuity Errors
  *************************
  Node WS02006230 (6.60%)
  Node WS02006115 (4.85%)
  Node WS02006116 (4.40%)
  Node WS02006242 (4.18%)
  Node WS02006112 (4.14%)
  
  
  ***************************
  Time-Step Critical Elements
  ***************************
  Link 8 (76.92%)
  Link 17 (12.52%)
  Link WSL2448 (8.94%)
  
  
  ********************************
  Highest Flow Instability Indexes
  ********************************
  Link WSL2302 (2)
  Link WSL2301 (2)
  Link WSL2297 (2)
  Link WSL2296 (2)
  Link WSL2298 (1)
  
  
  *************************
  Routing Time Step Summary
  *************************
  Minimum Time Step           :     0.15 sec
  Average Time Step           :     1.06 sec
  Maximum Time Step           :     5.00 sec
  Percent in Steady State     :    -0.00
  Average Iterations per Step :     2.16
  Percent Not Converging      :     1.99
  
  
  ***************************
  Subcatchment Runoff Summary
  ***************************
  
  ------------------------------------------------------------------------------------------------------------------------------
                            Total      Total      Total      Total     Imperv       Perv      Total       Total     Peak  Runoff
                           Precip      Runon       Evap      Infil     Runoff     Runoff     Runoff      Runoff   Runoff   Coeff
  Subcatchment                 mm         mm         mm         mm         mm         mm         mm    10^6 ltr      MLD
  ------------------------------------------------------------------------------------------------------------------------------
  1                         12.16      10.35       0.00       7.62       5.30       3.12       8.42        0.10     1.92   0.374
  2                         12.16       0.00       0.00       6.35       2.84       0.53       3.37        0.11     2.16   0.277
  3                         12.16       0.00       0.00       6.37       2.79       0.44       3.23        0.16     3.10   0.266
  35                        12.16       0.00       0.00       6.35       2.85       0.56       3.41        0.10     1.96   0.280
  36                        12.16       6.39       0.00       7.35       4.18       1.15       5.33        0.31     5.83   0.287
  40                        12.16       1.77       0.00       6.65       3.22       0.71       3.93        0.15     2.90   0.282
  41                        12.16       0.00       0.00       6.32       2.89       0.68       3.57        0.07     1.33   0.294
  42                        12.16       0.00       0.00       6.33       2.88       0.63       3.51        0.08     1.53   0.289
  43                        12.16       0.00       0.00       6.20       2.99       1.31       4.29        0.02     0.32   0.353
  44                        12.16      88.77       0.00      11.92      24.52      44.78      69.31        0.26     4.74   0.687
  45                        12.16       0.00       0.00       6.29       2.94       0.88       3.82        0.04     0.77   0.314
  46                        12.16       5.33       0.00       7.13       4.10       1.55       5.66        0.12     2.30   0.324
  47                        12.16       0.00       0.00       6.29       2.93       0.85       3.79        0.04     0.83   0.311
  48                        12.16       2.66       0.00       6.74       3.53       1.22       4.74        0.07     1.45   0.320
  55                        12.16       3.94       0.00       6.86       3.88       1.89       5.77        0.05     0.94   0.358
  56                        12.16       5.87       0.00       7.20       4.22       1.65       5.87        0.13     2.39   0.326
  57                        12.16       0.00       0.00       6.36       2.79       0.45       3.24        0.16     3.04   0.266
  59                        12.16       0.00       0.00       6.27       2.95       0.95       3.90        0.03     0.65   0.321
  60                        12.16       8.65       0.00       7.39       5.04       3.79       8.82        0.05     0.91   0.424
  61                        12.16       0.00       0.00       6.40       2.56       0.25       2.81        0.51     9.38   0.231
  64                        12.16       0.00       0.00       6.30       2.93       0.83       3.76        0.05     0.88   0.309
  
  
  ****************************
  Subcatchment Washoff Summary
  ****************************
  
  ------------------------------------------------------------------------------------------
                                 COD         NH3-N            TN            TP            SS
  Subcatchment                    kg            kg            kg            kg            kg
  ------------------------------------------------------------------------------------------
  1                            8.754         0.000         0.000         0.000         0.000
  2                            0.000         0.000         0.000         0.000         0.000
  3                            0.000         0.000         0.000         0.000         0.000
  35                          10.452         0.000         0.000         0.000         0.000
  36                          60.098         0.000         0.000         0.000         0.000
  40                          19.472         0.000         0.000         0.000         0.000
  41                           7.279         0.000         0.000         0.000         0.000
  42                           8.296         0.000         0.000         0.000         0.000
  43                           1.915         0.000         0.000         0.000         0.000
  44                          60.504         0.000         0.000         0.000         0.000
  45                           4.376         0.000         0.000         0.000         0.000
  46                          23.130         0.000         0.000         0.000         0.000
  47                           4.645         0.000         0.000         0.000         0.000
  48                          11.317         0.000         0.000         0.000         0.000
  55                           8.677         0.000         0.000         0.000         0.000
  56                          25.594         0.000         0.000         0.000         0.000
  57                          15.707         0.000         0.000         0.000         0.000
  59                           3.721         0.000         0.000         0.000         0.000
  60                          11.521         0.000         0.000         0.000         0.000
  61                          43.725         0.000         0.000         0.000         0.000
  64                           4.944         0.000         0.000         0.000         0.000
  ------------------------------------------------------------------------------------------
  System                     334.125         0.000         0.000         0.000         0.000
  
  
  ******************
  Node Depth Summary
  ******************
  
  ---------------------------------------------------------------------------------
                                 Average  Maximum  Maximum  Time of Max    Reported
                                   Depth    Depth      HGL   Occurrence   Max Depth
  Node                 Type       Meters   Meters   Meters  days hr:min      Meters
  ---------------------------------------------------------------------------------
  WS01000070           JUNCTION     0.00     0.00     0.00     0  00:00        0.00
  WS01000323           JUNCTION     0.00     0.00     0.00     0  00:00        0.00
  WS01000533           JUNCTION     0.00     0.00     6.86     0  00:00        0.00
  WS01005172           JUNCTION     0.00     0.00     0.00     0  00:00        0.00
  WS01005181           JUNCTION     0.00     0.00     0.00     0  00:00        0.00
  WS01009841           JUNCTION     0.00     0.00     0.00     0  00:00        0.00
  WS02000078           JUNCTION     0.00     0.00     0.00     0  00:00        0.00
  WS02000112           JUNCTION     0.00     0.00     0.00     0  00:00        0.00
  WS02000136           JUNCTION     0.00     0.00     0.00     0  00:00        0.00
  WS02004053           JUNCTION     0.00     0.00     0.00     0  00:00        0.00
  WS02004401           JUNCTION     2.13     2.33     8.33     0  02:45        2.33
  WS02005192           JUNCTION     0.41     0.67     8.54     0  02:40        0.66
  WS02005193           JUNCTION     0.46     0.71     8.53     0  02:40        0.71
  WS02005196           JUNCTION     0.43     0.68     8.53     0  02:40        0.68
  WS02006109           JUNCTION     1.53     1.79     8.41     0  01:42        1.76
  WS02006110           JUNCTION     1.55     1.83     8.43     0  01:42        1.76
  WS02006111           JUNCTION     1.57     1.84     8.42     0  01:42        1.76
  WS02006112           JUNCTION     2.01     2.27     8.39     0  01:42        2.21
  WS02006113           JUNCTION     1.56     1.84     8.43     0  01:42        1.77
  WS02006115           JUNCTION     2.03     2.25     8.35     0  01:42        2.23
  WS02006116           JUNCTION     2.09     2.29     8.33     0  02:45        2.29
  WS02006183           JUNCTION     0.00     0.00     0.00     0  00:00        0.00
  WS02006228           JUNCTION     1.51     1.75     8.40     0  01:42        1.74
  WS02006229           JUNCTION     1.47     1.72     8.41     0  01:43        1.72
  WS02006230           JUNCTION     1.41     1.67     8.42     0  01:42        1.67
  WS02006231           JUNCTION     1.27     1.54     8.44     0  01:42        1.50
  WS02006232           JUNCTION     1.15     1.46     8.49     0  01:42        1.37
  WS02006234           JUNCTION     1.03     1.38     8.54     0  01:42        1.22
  WS02006235           JUNCTION     1.03     1.39     8.56     0  01:42        1.20
  WS02006238           JUNCTION     1.02     1.37     8.55     0  01:42        1.19
  WS02006239           JUNCTION     0.99     1.30     8.51     0  01:42        1.16
  WS02006242           JUNCTION     0.91     1.32     8.62     0  01:42        1.07
  WS02006240           JUNCTION     0.91     1.28     8.57     0  01:42        1.08
  WS02006243           JUNCTION     0.80     1.25     8.67     0  01:42        0.95
  WS02006245           JUNCTION     0.74     1.19     8.68     0  01:42        0.89
  WS02006247           JUNCTION     0.72     1.08     8.59     0  01:42        0.87
  WS02006248           JUNCTION     0.64     0.79     8.38     0  02:40        0.79
  WS02006249           JUNCTION     0.64     1.09     8.69     0  01:45        0.82
  WS02006251           JUNCTION     0.59     1.27     8.94     0  01:45        0.82
  WS02006253           JUNCTION     0.48     0.73     8.53     0  02:40        0.73
  WS02618401           JUNCTION     0.00     0.00     0.00     0  00:00        0.00
  WSA1649              JUNCTION     0.00     0.00     0.00     0  00:00        0.00
  outfall-5            OUTFALL      0.10     0.19     7.86     0  02:40        0.19
  outfall-14           OUTFALL      0.08     0.13     7.79     0  02:45        0.13
  outfall-16           OUTFALL      0.00     0.00     8.39     0  00:00        0.00
  CC-storage           STORAGE      2.52     5.63     8.81     0  02:25        5.63
  
  
  *******************
  Node Inflow Summary
  *******************
  
  -------------------------------------------------------------------------------------------------
                                  Maximum  Maximum                  Lateral       Total        Flow
                                  Lateral    Total  Time of Max      Inflow      Inflow     Balance
                                   Inflow   Inflow   Occurrence      Volume      Volume       Error
  Node                 Type           MLD      MLD  days hr:min    10^6 ltr    10^6 ltr     Percent
  -------------------------------------------------------------------------------------------------
  WS01000070           JUNCTION      0.00     0.00     0  00:00           0           0       0.000 ltr
  WS01000323           JUNCTION      0.00     0.00     0  00:00           0           0       0.000 ltr
  WS01000533           JUNCTION      0.00     0.00     0  00:00           0           0       0.000 ltr
  WS01005172           JUNCTION      0.00     0.00     0  00:00           0           0       0.000 ltr
  WS01005181           JUNCTION      0.00     0.00     0  00:00           0           0       0.000 ltr
  WS01009841           JUNCTION      0.00     0.00     0  00:00           0           0       0.000 ltr
  WS02000078           JUNCTION      0.00     0.00     0  00:00           0           0       0.000 ltr
  WS02000112           JUNCTION      0.00     0.00     0  00:00           0           0       0.000 ltr
  WS02000136           JUNCTION      0.00     0.00     0  00:00           0           0       0.000 ltr
  WS02004053           JUNCTION      0.00     0.00     0  00:00           0           0       0.000 ltr
  WS02004401           JUNCTION      0.05    16.48     0  02:45      0.0086       0.731       4.025
  WS02005192           JUNCTION      3.14    10.25     0  01:44       0.179       0.187       1.473
  WS02005193           JUNCTION      0.09    13.62     0  01:43       0.014        0.23       3.213
  WS02005196           JUNCTION      0.12    12.72     0  01:44      0.0183       0.213       2.932
  WS02006109           JUNCTION      0.08    13.04     0  02:45      0.0129       0.602       4.164
  WS02006110           JUNCTION      0.08    13.12     0  02:45      0.0126       0.592       4.294
  WS02006111           JUNCTION      0.24    15.98     0  02:45      0.0352        0.77       2.716
  WS02006112           JUNCTION      0.18    16.14     0  02:45      0.0263       0.777       4.324
  WS02006113           JUNCTION      3.24    15.77     0  02:45        0.19       0.757       3.193
  WS02006115           JUNCTION      0.08    16.22     0  02:45      0.0129       0.761       5.096
  WS02006116           JUNCTION      0.24    16.43     0  02:45      0.0347       0.763       4.602
  WS02006183           JUNCTION      0.00     0.00     0  00:00           0           0       0.000 ltr
  WS02006228           JUNCTION      4.90    12.96     0  02:45       0.283       0.623       2.930
  WS02006229           JUNCTION      0.13    10.81     0  01:39      0.0193       0.376       4.297
  WS02006230           JUNCTION      0.07    13.12     0  01:42      0.0111       0.387       7.061
  WS02006231           JUNCTION      0.13    14.36     0  01:39      0.0197       0.397       3.807
  WS02006232           JUNCTION      2.23    18.47     0  01:39       0.127       0.457       3.397
  WS02006234           JUNCTION      0.14    21.74     0  01:40      0.0208       0.411       3.494
  WS02006235           JUNCTION      0.14    22.96     0  01:40      0.0215       0.411       1.905
  WS02006238           JUNCTION      0.15    24.71     0  01:40      0.0226       0.413       2.500
  WS02006239           JUNCTION      0.11    28.61     0  01:41      0.0167       0.417       3.442
  WS02006242           JUNCTION      0.08    35.54     0  01:41      0.0124        0.44       4.358
  WS02006240           JUNCTION      0.06    30.76     0  01:41     0.00952       0.424       3.794
  WS02006243           JUNCTION      0.17    34.70     0  01:41      0.0259       0.457       3.820
  WS02006245           JUNCTION      0.07    34.69     0  01:41      0.0109       0.456       2.808
  WS02006247           JUNCTION      2.06    34.81     0  01:42       0.126       0.528       2.107
  WS02006248           JUNCTION      0.12    38.55     0  02:40      0.0185        1.33       0.785
  WS02006249           JUNCTION      0.19    38.43     0  02:40      0.0275        1.12       1.251
  WS02006251           JUNCTION      1.00    38.26     0  02:40      0.0572        1.11       1.308
  WS02006253           JUNCTION      0.11    37.52     0  02:40      0.0166        1.08       0.658
  WS02618401           JUNCTION      0.00     0.00     0  00:00           0           0       0.000 ltr
  WSA1649              JUNCTION      0.00     0.00     0  00:00           0           0       0.000 ltr
  outfall-5            OUTFALL       0.00    35.14     0  02:40           0        1.05       0.000
  outfall-14           OUTFALL       0.00    16.48     0  02:45           0       0.697       0.000
  outfall-16           OUTFALL       0.00     0.00     0  00:00           0           0       0.000 ltr
  CC-storage           STORAGE      10.87    10.87     0  03:00       0.781       0.781     -12.184
  
  
  **********************
  Node Surcharge Summary
  **********************
  
  Surcharging occurs when water rises above the top of the highest conduit.
  ---------------------------------------------------------------------
                                               Max. Height   Min. Depth
                                   Hours       Above Crown    Below Rim
  Node                 Type      Surcharged         Meters       Meters
  ---------------------------------------------------------------------
  WS01000070           JUNCTION        3.83          0.000        0.000
  WS01000323           JUNCTION        3.83          0.000        0.000
  WS01000533           JUNCTION        3.83          0.000        2.147
  WS01005172           JUNCTION        3.83          0.000        0.000
  WS01005181           JUNCTION        3.83          0.000        0.000
  WS01009841           JUNCTION        3.83          0.000        0.000
  WS02000078           JUNCTION        3.83          0.000        0.000
  WS02000112           JUNCTION        3.83          0.000        0.000
  WS02000136           JUNCTION        3.83          0.000        0.000
  WS02004053           JUNCTION        3.83          0.000        0.000
  WS02005192           JUNCTION        0.19          0.065        2.754
  WS02005193           JUNCTION        0.25          0.112        2.505
  WS02005196           JUNCTION        0.21          0.083        2.623
  WS02006109           JUNCTION        2.18          0.989        0.849
  WS02006110           JUNCTION        2.18          1.031        0.814
  WS02006111           JUNCTION        2.18          1.039        0.838
  WS02006112           JUNCTION        2.41          1.272        0.411
  WS02006113           JUNCTION        2.18          1.044        0.889
  WS02006115           JUNCTION        2.44          1.247        1.052
  WS02006116           JUNCTION        2.52          1.294        1.056
  WS02006183           JUNCTION        3.83          0.000        0.000
  WS02006228           JUNCTION        2.18          0.951        1.280
  WS02006229           JUNCTION        2.18          0.920        1.534
  WS02006231           JUNCTION        2.17          0.845        0.698
  WS02006232           JUNCTION        2.16          0.764        0.725
  WS02006234           JUNCTION        2.15          0.679        0.578
  WS02006235           JUNCTION        2.15          0.688        0.606
  WS02006238           JUNCTION        2.15          0.675        0.759
  WS02006239           JUNCTION        2.15          0.601        0.728
  WS02006242           JUNCTION        2.14          0.616        0.233
  WS02006240           JUNCTION        2.14          0.580        0.823
  WS02006243           JUNCTION        2.14          0.547        0.233
  WS02006245           JUNCTION        2.13          0.488        0.367
  WS02006247           JUNCTION        2.11          0.381        0.379
  WS02006249           JUNCTION        0.65          0.388        0.000
  WS02006251           JUNCTION        0.39          0.567        0.943
  WS02006253           JUNCTION        0.11          0.033        2.421
  WS02618401           JUNCTION        3.83          0.000        0.000
  WSA1649              JUNCTION        3.83          0.000        0.000
  
  
  *********************
  Node Flooding Summary
  *********************
  
  Flooding refers to all water that overflows a node, whether it ponds or not.
  --------------------------------------------------------------------------
                                                             Total   Maximum
                                 Maximum   Time of Max       Flood    Ponded
                        Hours       Rate    Occurrence      Volume     Depth
  Node                 Flooded       MLD   days hr:min    10^6 ltr    Meters
  --------------------------------------------------------------------------
  WS02006249              0.01      6.03      0  01:45       0.000     0.000
  CC-storage              0.17      7.92      0  02:30       0.040     0.000
  
  
  **********************
  Storage Volume Summary
  **********************
  
  --------------------------------------------------------------------------------------------------
                         Average     Avg  Evap Exfil       Maximum     Max    Time of Max    Maximum
                          Volume    Pcnt  Pcnt  Pcnt        Volume    Pcnt     Occurrence    Outflow
  Storage Unit           1000 m3    Full  Loss  Loss       1000 m3    Full    days hr:min        MLD
  --------------------------------------------------------------------------------------------------
  CC-storage               0.071      45     0     0         0.159     100       0  02:25      34.56
  
  
  ***********************
  Outfall Loading Summary
  ***********************
  
  ---------------------------------------------------------------------------------------------------------------------------------
                         Flow       Avg       Max       Total         Total         Total         Total         Total         Total
                         Freq      Flow      Flow      Volume           COD         NH3-N            TN            TP            SS
  Outfall Node           Pcnt       MLD       MLD    10^6 ltr            kg            kg            kg            kg            kg
  ---------------------------------------------------------------------------------------------------------------------------------
  outfall-5             89.61     13.28     35.14       1.049       101.489         0.000         0.000         0.000         0.000
  outfall-14            89.66      8.43     16.48       0.697        95.988         0.000         0.000         0.000         0.000
  outfall-16             0.00      0.00      0.00       0.000         0.000         0.000         0.000         0.000         0.000
  ---------------------------------------------------------------------------------------------------------------------------------
  System                59.76     21.71     50.01       1.746       197.478         0.000         0.000         0.000         0.000
  
  
  ********************
  Link Flow Summary
  ********************
  
  -----------------------------------------------------------------------------
                                 Maximum  Time of Max   Maximum    Max/    Max/
                                  |Flow|   Occurrence   |Veloc|    Full    Full
  Link                 Type          MLD  days hr:min     m/sec    Flow   Depth
  -----------------------------------------------------------------------------
  WSL2038              CONDUIT     10.20     0  01:46      0.59    0.51    1.00
  WSL2039              CONDUIT     16.14     0  03:43      0.88    0.83    1.00
  WSL2041              CONDUIT     12.11     0  03:43      0.80    0.59    1.00
  WSL2294              CONDUIT     13.04     0  02:45      0.43    0.44    1.00
  WSL2295              CONDUIT     13.12     0  02:45      0.50    0.59    1.00
  WSL2296              CONDUIT     15.98     0  02:45      0.63    0.09    1.00
  WSL2297              CONDUIT     16.14     0  02:45      0.34    0.31    1.00
  WSL2298              CONDUIT     15.77     0  02:45      0.87    0.73    1.00
  WSL2301              CONDUIT     16.22     0  02:45      0.29    0.15    1.00
  WSL2302              CONDUIT     16.43     0  02:45      0.24    0.20    1.00
  WSL2441              CONDUIT     12.96     0  02:45      0.44    0.33    1.00
  WSL2442              CONDUIT     10.68     0  01:39      0.63    0.27    1.00
  WSL2443              CONDUIT     13.05     0  01:42      0.73    0.20    1.00
  WSL2444              CONDUIT     14.23     0  01:39      0.88    0.23    1.00
  WSL2446              CONDUIT     17.66     0  01:39      0.87    0.30    1.00
  WSL2447              CONDUIT     21.60     0  01:40      1.16    1.11    1.00
  WSL2448              CONDUIT     22.82     0  01:40      1.13    0.64    1.00
  WSL2449              CONDUIT     24.56     0  01:40      1.14    0.86    1.00
  WSL2450              CONDUIT     28.50     0  01:41      1.23    0.59    1.00
  WSL2451              CONDUIT     30.70     0  01:41      1.25    2.00    1.00
  WSL2452              CONDUIT     35.45     0  01:41      1.32    0.68    1.00
  WSL2454              CONDUIT     34.52     0  01:41      1.47    0.81    1.00
  WSL2478              CONDUIT     34.62     0  01:41      1.41    1.22    1.00
  WSL2479              CONDUIT     34.19     0  01:42      1.41    0.65    1.00
  WSL2480              CONDUIT     38.44     0  02:40      1.42    1.78    1.00
  WSL2482              CONDUIT     38.26     0  02:40      1.36    1.00    1.00
  WSL2484              CONDUIT     37.54     0  02:40      1.51    0.53    1.00
  WSL2493              CONDUIT     10.46     0  01:43      0.51    0.18    1.00
  8                    CONDUIT     35.14     0  02:40      6.85    0.46    0.48
  19                   CONDUIT      0.00     0  00:00      0.00    0.00    0.00
  17                   CONDUIT     16.48     0  02:45      5.64    0.21    0.31
  CC-Pump-1            PUMP        17.28     0  02:40              1.00
  CC-Pump-2            PUMP        17.28     0  02:40              1.00
  
  
  ***************************
  Flow Classification Summary
  ***************************
  
  -------------------------------------------------------------------------------------
                      Adjusted    ---------- Fraction of Time in Flow Class ---------- 
                       /Actual         Up    Down  Sub   Sup   Up    Down  Norm  Inlet 
  Conduit               Length    Dry  Dry   Dry   Crit  Crit  Crit  Crit  Ltd   Ctrl  
  -------------------------------------------------------------------------------------
  WSL2038                 1.00   0.00  0.00  0.00  1.00  0.00  0.00  0.00  0.01  0.00
  WSL2039                 1.00   0.00  0.00  0.00  1.00  0.00  0.00  0.00  0.00  0.00
  WSL2041                 1.00   0.00  0.00  0.00  1.00  0.00  0.00  0.00  0.33  0.00
  WSL2294                 1.00   0.00  0.00  0.00  1.00  0.00  0.00  0.00  0.00  0.00
  WSL2295                 1.00   0.00  0.00  0.00  1.00  0.00  0.00  0.00  0.00  0.00
  WSL2296                 1.00   0.00  0.00  0.00  1.00  0.00  0.00  0.00  0.17  0.00
  WSL2297                 1.00   0.00  0.00  0.00  1.00  0.00  0.00  0.00  0.00  0.00
  WSL2298                 1.00   0.00  0.00  0.00  0.98  0.02  0.00  0.00  0.00  0.00
  WSL2301                 1.00   0.00  0.00  0.00  1.00  0.00  0.00  0.00  0.04  0.00
  WSL2302                 1.00   0.00  0.00  0.00  1.00  0.00  0.00  0.00  0.01  0.00
  WSL2441                 1.00   0.00  0.00  0.00  1.00  0.00  0.00  0.00  0.00  0.00
  WSL2442                 1.00   0.00  0.00  0.00  1.00  0.00  0.00  0.00  0.17  0.00
  WSL2443                 1.00   0.00  0.00  0.00  1.00  0.00  0.00  0.00  0.31  0.00
  WSL2444                 1.00   0.00  0.00  0.00  0.93  0.07  0.00  0.00  0.24  0.00
  WSL2446                 1.00   0.00  0.00  0.00  0.92  0.08  0.00  0.00  0.03  0.00
  WSL2447                 1.00   0.00  0.00  0.00  1.00  0.00  0.00  0.00  0.00  0.00
  WSL2448                 1.00   0.00  0.00  0.00  1.00  0.00  0.00  0.00  0.00  0.00
  WSL2449                 1.00   0.00  0.00  0.00  1.00  0.00  0.00  0.00  0.02  0.00
  WSL2450                 1.00   0.00  0.00  0.00  1.00  0.00  0.00  0.00  0.41  0.00
  WSL2451                 1.00   0.00  0.00  0.00  1.00  0.00  0.00  0.00  0.00  0.00
  WSL2452                 1.00   0.00  0.00  0.00  1.00  0.00  0.00  0.00  0.39  0.00
  WSL2454                 1.00   0.00  0.00  0.00  1.00  0.00  0.00  0.00  0.01  0.00
  WSL2478                 1.00   0.00  0.00  0.00  1.00  0.00  0.00  0.00  0.00  0.00
  WSL2479                 1.00   0.00  0.00  0.00  1.00  0.00  0.00  0.00  0.40  0.00
  WSL2480                 1.00   0.00  0.00  0.00  1.00  0.00  0.00  0.00  0.00  0.00
  WSL2482                 1.00   0.00  0.00  0.00  1.00  0.00  0.00  0.00  0.40  0.00
  WSL2484                 1.00   0.00  0.00  0.00  1.00  0.00  0.00  0.00  0.38  0.00
  WSL2493                 1.00   0.00  0.00  0.00  1.00  0.00  0.00  0.00  0.05  0.00
  8                       1.00   0.10  0.00  0.00  0.00  0.90  0.00  0.00  0.10  0.00
  19                      1.00   1.00  0.00  0.00  0.00  0.00  0.00  0.00  0.00  0.00
  17                      1.00   0.10  0.00  0.00  0.00  0.90  0.00  0.00  0.05  0.00
  
  
  *************************
  Conduit Surcharge Summary
  *************************
  
  ----------------------------------------------------------------------------
                                                           Hours        Hours 
                         --------- Hours Full --------   Above Full   Capacity
  Conduit                Both Ends  Upstream  Dnstream   Normal Flow   Limited
  ----------------------------------------------------------------------------
  WSL2038                     0.19      0.19      0.21      0.01         0.01
  WSL2039                     0.25      0.25      0.27      0.01         0.01
  WSL2041                     0.21      0.21      0.25      0.01         0.01
  WSL2294                     2.18      2.18      2.18      0.01         0.01
  WSL2295                     2.18      2.18      2.18      0.01         0.03
  WSL2296                     2.18      2.18      2.74      0.01         0.01
  WSL2297                     2.41      2.41      2.44      0.01         0.01
  WSL2298                     2.18      2.18      2.18      0.01         0.03
  WSL2301                     2.44      2.44      2.52      0.01         0.01
  WSL2302                     2.52      2.52      2.59      0.01         0.01
  WSL2441                     2.18      2.18      2.18      0.01         0.01
  WSL2442                     2.18      2.18      2.19      0.01         0.01
  WSL2443                     2.17      2.17      2.18      0.01         0.01
  WSL2444                     2.16      2.16      2.17      0.01         0.01
  WSL2446                     2.15      2.15      2.16      0.01         0.01
  WSL2447                     2.15      2.15      2.15      0.01         0.01
  WSL2448                     2.15      2.15      2.15      0.01         0.01
  WSL2449                     2.15      2.15      2.15      0.01         0.01
  WSL2450                     2.14      2.14      2.15      0.01         0.01
  WSL2451                     2.14      2.14      2.14      0.06         0.01
  WSL2452                     2.14      2.14      2.14      0.01         0.01
  WSL2454                     2.13      2.13      2.14      0.01         0.01
  WSL2478                     2.11      2.11      2.13      0.04         0.01
  WSL2479                     0.71      0.71      2.11      0.01         0.01
  WSL2480                     0.65      0.65      0.71      0.52         0.43
  WSL2482                     0.39      0.39      0.65      0.01         0.02
  WSL2484                     0.11      0.11      0.39      0.01         0.01
  WSL2493                     2.18      2.18      2.18      0.01         0.01
  
  
  ***************
  Pumping Summary
  ***************
  
  ---------------------------------------------------------------------------------------------------------
                                                  Min       Avg       Max     Total     Power    % Time Off
                        Percent   Number of      Flow      Flow      Flow    Volume     Usage    Pump Curve
  Pump                 Utilized   Start-Ups       MLD       MLD       MLD  10^6 ltr     Kw-hr    Low   High
  ---------------------------------------------------------------------------------------------------------
  CC-Pump-1               30.42           3      0.00      9.16     17.28     0.425      3.64    0.0    0.0
  CC-Pump-2               30.42           3      0.00      9.16     17.28     0.425      3.64    0.0    0.0
  
  
  ***************************
  Link Pollutant Load Summary
  ***************************
  
  ------------------------------------------------------------------------------------------
                                 COD         NH3-N            TN            TP            SS
  Link                            kg            kg            kg            kg            kg
  ------------------------------------------------------------------------------------------
  WSL2038                     20.340         0.000         0.000         0.000         0.000
  WSL2039                     25.602         0.000         0.000         0.000         0.000
  WSL2041                     23.138         0.000         0.000         0.000         0.000
  WSL2294                    101.011         0.000         0.000         0.000         0.000
  WSL2295                     99.062         0.000         0.000         0.000         0.000
  WSL2296                    103.123         0.000         0.000         0.000         0.000
  WSL2297                    102.035         0.000         0.000         0.000         0.000
  WSL2298                     99.497         0.000         0.000         0.000         0.000
  WSL2301                    100.331         0.000         0.000         0.000         0.000
  WSL2302                    101.319         0.000         0.000         0.000         0.000
  WSL2441                    102.276         0.000         0.000         0.000         0.000
  WSL2442                     42.863         0.000         0.000         0.000         0.000
  WSL2443                     42.767         0.000         0.000         0.000         0.000
  WSL2444                     41.244         0.000         0.000         0.000         0.000
  WSL2446                     43.979         0.000         0.000         0.000         0.000
  WSL2447                     48.822         0.000         0.000         0.000         0.000
  WSL2448                     50.496         0.000         0.000         0.000         0.000
  WSL2449                     52.356         0.000         0.000         0.000         0.000
  WSL2450                     55.307         0.000         0.000         0.000         0.000
  WSL2451                     57.712         0.000         0.000         0.000         0.000
  WSL2452                     59.432         0.000         0.000         0.000         0.000
  WSL2454                     59.181         0.000         0.000         0.000         0.000
  WSL2478                     58.766         0.000         0.000         0.000         0.000
  WSL2479                     59.579         0.000         0.000         0.000         0.000
  WSL2480                    112.731         0.000         0.000         0.000         0.000
  WSL2482                    109.315         0.000         0.000         0.000         0.000
  WSL2484                     99.148         0.000         0.000         0.000         0.000
  WSL2493                     45.467         0.000         0.000         0.000         0.000
  8                          101.489         0.000         0.000         0.000         0.000
  19                           0.000         0.000         0.000         0.000         0.000
  17                          95.988         0.000         0.000         0.000         0.000
  CC-Pump-1                   36.017         0.000         0.000         0.000         0.000
  CC-Pump-2                   36.017         0.000         0.000         0.000         0.000
  

  Analysis begun on:  Tue Dec 17 09:47:46 2019
  Analysis ended on:  Tue Dec 17 09:47:46 2019
  Total elapsed time: < 1 sec