
  EPA STORM WATER MANAGEMENT MODEL - VERSION 5.1 (Build 5.3.0.dev0)
  --------------------------------------------------------------

  
  *********************************************************
  NOTE: The summary statistics displayed in this report are
  based on results found at every computational time step,  
  not just on results from each reporting time step.
  *********************************************************
  
  ****************
  Analysis Options
  ****************
  Flow Units ............... MLD
  Process Models:
    Rainfall/Runoff ........ YES
    RDII ................... NO
    Snowmelt ............... NO
    Groundwater ............ NO
    Flow Routing ........... YES
    Ponding Allowed ........ NO
    Water Quality .......... YES
  Infiltration Method ...... GREEN_AMPT
  Flow Routing Method ...... DYNWAVE
  Surcharge Method ......... EXTRAN
  Starting Date ............ 08/28/2015 08:00:00
  Ending Date .............. 08/28/2015 11:50:00
  Antecedent Dry Days ...... 4.0
  Report Time Step ......... 00:01:00
  Wet Time Step ............ 00:01:00
  Dry Time Step ............ 00:01:00
  Routing Time Step ........ 5.00 sec
  Variable Time Step ....... YES
  Maximum Trials ........... 8
  Number of Threads ........ 1
  Head Tolerance ........... 0.001500 m
  
  
  **************************        Volume         Depth
  Runoff Quantity Continuity     hectare-m            mm
  **************************     ---------       -------
  Total Precipitation ......         0.832        13.452
  Evaporation Loss .........         0.000         0.000
  Infiltration Loss ........         0.413         6.684
  Surface Runoff ...........         0.153         2.471
  Final Storage ............         0.266         4.298
  Continuity Error (%) .....        -0.009
  
  
  **************************           COD         NH3-N            TN            TP            SS
  Runoff Quality Continuity             kg            kg            kg            kg            kg
  **************************    ----------    ----------    ----------    ----------    ----------
  Initial Buildup ..........      2504.640         0.000         0.000         0.000         0.000
  Surface Buildup ..........        20.217         0.000         0.000         0.000         0.000
  Wet Deposition ...........         0.000         0.000         0.000         0.000         0.000
  Sweeping Removal .........         0.000         0.000         0.000         0.000         0.000
  Infiltration Loss ........        49.502         0.000         0.000         0.000         0.000
  BMP Removal ..............         0.000         0.000         0.000         0.000         0.000
  Surface Runoff ...........       184.259         0.000         0.000         0.000         0.000
  Remaining Buildup ........      2290.200         0.000         0.000         0.000         0.000
  Continuity Error (%) .....         0.035         0.000         0.000         0.000         0.000
  
  
  **************************        Volume        Volume
  Flow Routing Continuity        hectare-m      10^6 ltr
  **************************     ---------     ---------
  Dry Weather Inflow .......         0.000         0.000
  Wet Weather Inflow .......         0.153         1.525
  Groundwater Inflow .......         0.000         0.000
  RDII Inflow ..............         0.000         0.000
  External Inflow ..........         0.082         0.822
  External Outflow .........         0.188         1.883
  Flooding Loss ............         0.008         0.084
  Evaporation Loss .........         0.000         0.000
  Exfiltration Loss ........         0.000         0.000
  Initial Stored Volume ....         0.000         0.000
  Final Stored Volume ......         0.046         0.463
  Continuity Error (%) .....        -3.530
  
  
  **************************           COD         NH3-N            TN            TP            SS
  Quality Routing Continuity            kg            kg            kg            kg            kg
  **************************    ----------    ----------    ----------    ----------    ----------
  Dry Weather Inflow .......         0.000         0.000         0.000         0.000         0.000
  Wet Weather Inflow .......       183.824         0.000         0.000         0.000         0.000
  Groundwater Inflow .......         0.000         0.000         0.000         0.000         0.000
  RDII Inflow ..............         0.000         0.000         0.000         0.000         0.000
  External Inflow ..........       137.264         0.000         0.000         0.000         0.000
  External Outflow .........       227.673         0.000         0.000         0.000         0.000
  Flooding Loss ............        11.727         0.000         0.000         0.000         0.000
  Exfiltration Loss ........         0.000         0.000         0.000         0.000         0.000
  Mass Reacted .............         0.000         0.000         0.000         0.000         0.000
  Initial Stored Mass ......         0.000         0.000         0.000         0.000         0.000
  Final Stored Mass ........        62.606         0.000         0.000         0.000         0.000
  Continuity Error (%) .....         5.943         0.000         0.000         0.000         0.000
  
  
  *************************
  Highest Continuity Errors
  *************************
  Node WS02006230 (6.63%)
  Node WS02006115 (4.58%)
  Node WS02006116 (4.14%)
  Node WS02006242 (4.14%)
  Node WS02006229 (4.12%)
  
  
  ***************************
  Time-Step Critical Elements
  ***************************
  Link 8 (79.99%)
  Link 17 (9.66%)
  Link WSL2448 (8.90%)
  
  
  ********************************
  Highest Flow Instability Indexes
  ********************************
  Link WSL2301 (3)
  Link WSL2302 (3)
  Link WSL2297 (2)
  Link WSL2296 (2)
  Link WSL2298 (2)
  
  
  *************************
  Routing Time Step Summary
  *************************
  Minimum Time Step           :     0.30 sec
  Average Time Step           :     1.05 sec
  Maximum Time Step           :     5.00 sec
  Percent in Steady State     :    -0.00
  Average Iterations per Step :     2.19
  Percent Not Converging      :     2.35
  
  
  ***************************
  Subcatchment Runoff Summary
  ***************************
  
  ------------------------------------------------------------------------------------------------------------------------------
                            Total      Total      Total      Total     Imperv       Perv      Total       Total     Peak  Runoff
                           Precip      Runon       Evap      Infil     Runoff     Runoff     Runoff      Runoff   Runoff   Coeff
  Subcatchment                 mm         mm         mm         mm         mm         mm         mm    10^6 ltr      MLD
  ------------------------------------------------------------------------------------------------------------------------------
  1                         13.45      11.85       0.00       7.70       5.94       3.75       9.69        0.12     2.82   0.383
  2                         13.45       0.00       0.00       6.41       3.14       0.70       3.83        0.13     3.47   0.285
  3                         13.45       0.00       0.00       6.43       3.08       0.58       3.66        0.19     4.90   0.272
  35                        13.45       0.00       0.00       6.41       3.15       0.73       3.88        0.12     3.17   0.288
  36                        13.45       7.29       0.00       7.43       4.65       1.40       6.05        0.36     8.56   0.292
  40                        13.45       2.02       0.00       6.72       3.57       0.90       4.47        0.17     4.54   0.289
  41                        13.45       0.00       0.00       6.38       3.20       0.88       4.08        0.08     2.19   0.303
  42                        13.45       0.00       0.00       6.39       3.18       0.82       4.01        0.09     2.50   0.298
  43                        13.45       0.00       0.00       6.25       3.30       1.69       4.99        0.02     0.55   0.371
  44                        13.45     100.83       0.00      12.09      27.73      51.11      78.83        0.29     6.22   0.690
  45                        13.45       0.00       0.00       6.34       3.25       1.14       4.39        0.05     1.29   0.326
  46                        13.45       6.12       0.00       7.22       4.58       1.91       6.49        0.14     3.52   0.332
  47                        13.45       0.00       0.00       6.35       3.24       1.11       4.35        0.05     1.38   0.324
  48                        13.45       3.05       0.00       6.81       3.92       1.53       5.45        0.09     2.30   0.330
  55                        13.45       4.54       0.00       6.94       4.33       2.35       6.67        0.06     1.50   0.371
  56                        13.45       6.73       0.00       7.28       4.71       2.02       6.74        0.14     3.63   0.334
  57                        13.45       0.00       0.00       6.43       3.08       0.58       3.67        0.18     4.82   0.273
  59                        13.45       0.00       0.00       6.33       3.26       1.24       4.50        0.04     1.09   0.335
  60                        13.45       9.93       0.00       7.47       5.65       4.58      10.22        0.05     1.39   0.437
  61                        13.45       0.00       0.00       6.47       2.82       0.32       3.14        0.57    13.99   0.234
  64                        13.45       0.00       0.00       6.35       3.24       1.07       4.31        0.05     1.47   0.321
  
  
  ****************************
  Subcatchment Washoff Summary
  ****************************
  
  ------------------------------------------------------------------------------------------
                                 COD         NH3-N            TN            TP            SS
  Subcatchment                    kg            kg            kg            kg            kg
  ------------------------------------------------------------------------------------------
  1                           12.258         0.000         0.000         0.000         0.000
  2                            0.000         0.000         0.000         0.000         0.000
  3                            0.000         0.000         0.000         0.000         0.000
  35                          14.944         0.000         0.000         0.000         0.000
  36                          83.241         0.000         0.000         0.000         0.000
  40                          27.574         0.000         0.000         0.000         0.000
  41                          10.520         0.000         0.000         0.000         0.000
  42                          11.942         0.000         0.000         0.000         0.000
  43                           2.881         0.000         0.000         0.000         0.000
  44                          77.019         0.000         0.000         0.000         0.000
  45                           6.424         0.000         0.000         0.000         0.000
  46                          32.771         0.000         0.000         0.000         0.000
  47                           6.808         0.000         0.000         0.000         0.000
  48                          16.305         0.000         0.000         0.000         0.000
  55                          12.551         0.000         0.000         0.000         0.000
  56                          35.958         0.000         0.000         0.000         0.000
  57                          22.199         0.000         0.000         0.000         0.000
  59                           5.490         0.000         0.000         0.000         0.000
  60                          15.869         0.000         0.000         0.000         0.000
  61                          60.232         0.000         0.000         0.000         0.000
  64                           7.232         0.000         0.000         0.000         0.000
  ------------------------------------------------------------------------------------------
  System                     462.218         0.000         0.000         0.000         0.000
  
  
  ******************
  Node Depth Summary
  ******************
  
  ---------------------------------------------------------------------------------
                                 Average  Maximum  Maximum  Time of Max    Reported
                                   Depth    Depth      HGL   Occurrence   Max Depth
  Node                 Type       Meters   Meters   Meters  days hr:min      Meters
  ---------------------------------------------------------------------------------
  WS01000070           JUNCTION     0.00     0.00     0.00     0  00:00        0.00
  WS01000323           JUNCTION     0.00     0.00     0.00     0  00:00        0.00
  WS01000533           JUNCTION     0.00     0.00     6.86     0  00:00        0.00
  WS01005172           JUNCTION     0.00     0.00     0.00     0  00:00        0.00
  WS01005181           JUNCTION     0.00     0.00     0.00     0  00:00        0.00
  WS01009841           JUNCTION     0.00     0.00     0.00     0  00:00        0.00
  WS02000078           JUNCTION     0.00     0.00     0.00     0  00:00        0.00
  WS02000112           JUNCTION     0.00     0.00     0.00     0  00:00        0.00
  WS02000136           JUNCTION     0.00     0.00     0.00     0  00:00        0.00
  WS02004053           JUNCTION     0.00     0.00     0.00     0  00:00        0.00
  WS02004401           JUNCTION     2.14     2.33     8.33     0  02:45        2.33
  WS02005192           JUNCTION     0.42     1.58     9.45     0  01:47        0.66
  WS02005193           JUNCTION     0.47     0.71     8.53     0  02:40        0.71
  WS02005196           JUNCTION     0.44     0.69     8.54     0  02:40        0.68
  WS02006109           JUNCTION     1.54     1.76     8.38     0  01:42        1.73
  WS02006110           JUNCTION     1.56     1.80     8.40     0  01:42        1.75
  WS02006111           JUNCTION     1.57     1.82     8.40     0  01:42        1.76
  WS02006112           JUNCTION     2.02     2.26     8.38     0  01:42        2.21
  WS02006113           JUNCTION     1.56     1.82     8.41     0  01:42        1.75
  WS02006115           JUNCTION     2.04     2.24     8.34     0  01:42        2.23
  WS02006116           JUNCTION     2.10     2.29     8.33     0  02:45        2.29
  WS02006183           JUNCTION     0.00     0.00     0.00     0  00:00        0.00
  WS02006228           JUNCTION     1.51     1.71     8.36     0  02:45        1.71
  WS02006229           JUNCTION     1.47     1.67     8.36     0  02:45        1.67
  WS02006230           JUNCTION     1.42     1.61     8.36     0  02:45        1.61
  WS02006231           JUNCTION     1.27     1.46     8.36     0  02:45        1.46
  WS02006232           JUNCTION     1.15     1.34     8.37     0  02:45        1.34
  WS02006234           JUNCTION     1.04     1.23     8.39     0  01:43        1.21
  WS02006235           JUNCTION     1.03     1.26     8.43     0  01:43        1.20
  WS02006238           JUNCTION     1.02     1.25     8.43     0  01:43        1.19
  WS02006239           JUNCTION     0.99     1.23     8.44     0  01:43        1.16
  WS02006242           JUNCTION     0.91     1.39     8.69     0  01:43        1.12
  WS02006240           JUNCTION     0.92     1.18     8.47     0  01:43        1.08
  WS02006243           JUNCTION     0.80     1.42     8.84     0  01:43        0.96
  WS02006245           JUNCTION     0.74     1.27     8.76     0  01:43        0.89
  WS02006247           JUNCTION     0.72     1.46     8.97     0  01:43        0.87
  WS02006248           JUNCTION     0.65     0.79     8.38     0  02:40        0.79
  WS02006249           JUNCTION     0.65     0.87     8.47     0  01:46        0.82
  WS02006251           JUNCTION     0.60     0.97     8.64     0  02:47        0.82
  WS02006253           JUNCTION     0.48     0.74     8.54     0  02:40        0.74
  WS02618401           JUNCTION     0.00     0.00     0.00     0  00:00        0.00
  WSA1649              JUNCTION     0.00     0.00     0.00     0  00:00        0.00
  outfall-5            OUTFALL      0.10     0.19     7.86     0  02:40        0.19
  outfall-14           OUTFALL      0.08     0.13     7.79     0  02:45        0.13
  outfall-16           OUTFALL      0.00     0.00     8.39     0  00:00        0.00
  CC-storage           STORAGE      2.66     5.63     8.81     0  02:28        5.63
  
  
  *******************
  Node Inflow Summary
  *******************
  
  -------------------------------------------------------------------------------------------------
                                  Maximum  Maximum                  Lateral       Total        Flow
                                  Lateral    Total  Time of Max      Inflow      Inflow     Balance
                                   Inflow   Inflow   Occurrence      Volume      Volume       Error
  Node                 Type           MLD      MLD  days hr:min    10^6 ltr    10^6 ltr     Percent
  -------------------------------------------------------------------------------------------------
  WS01000070           JUNCTION      0.00     0.00     0  00:00           0           0       0.000 ltr
  WS01000323           JUNCTION      0.00     0.00     0  00:00           0           0       0.000 ltr
  WS01000533           JUNCTION      0.00     0.00     0  00:00           0           0       0.000 ltr
  WS01005172           JUNCTION      0.00     0.00     0  00:00           0           0       0.000 ltr
  WS01005181           JUNCTION      0.00     0.00     0  00:00           0           0       0.000 ltr
  WS01009841           JUNCTION      0.00     0.00     0  00:00           0           0       0.000 ltr
  WS02000078           JUNCTION      0.00     0.00     0  00:00           0           0       0.000 ltr
  WS02000112           JUNCTION      0.00     0.00     0  00:00           0           0       0.000 ltr
  WS02000136           JUNCTION      0.00     0.00     0  00:00           0           0       0.000 ltr
  WS02004053           JUNCTION      0.00     0.00     0  00:00           0           0       0.000 ltr
  WS02004401           JUNCTION      0.05    17.02     0  02:45      0.0086       0.778       3.783
  WS02005192           JUNCTION      4.91    10.03     0  01:47         0.2       0.207       1.250
  WS02005193           JUNCTION      0.09    12.80     0  01:44       0.014       0.254       2.899
  WS02005196           JUNCTION      0.12    12.28     0  01:45      0.0183       0.234       2.900
  WS02006109           JUNCTION      0.08    13.18     0  02:45      0.0129       0.628       3.981
  WS02006110           JUNCTION      0.08    13.25     0  02:45      0.0126       0.618       4.105
  WS02006111           JUNCTION      0.24    16.52     0  02:45      0.0352       0.817       2.552
  WS02006112           JUNCTION      0.18    16.68     0  02:45      0.0263       0.823       4.058
  WS02006113           JUNCTION      5.04    16.31     0  02:45       0.212       0.804       2.997
  WS02006115           JUNCTION      0.08    16.76     0  02:45      0.0129       0.808       4.798
  WS02006116           JUNCTION      0.24    16.97     0  02:45      0.0347       0.811       4.316
  WS02006183           JUNCTION      0.00     0.00     0  00:00           0           0       0.000 ltr
  WS02006228           JUNCTION      6.38    13.10     0  02:45       0.318       0.654       2.771
  WS02006229           JUNCTION      0.13    12.33     0  01:39      0.0193       0.376       4.301
  WS02006230           JUNCTION      0.07    14.08     0  01:39      0.0111       0.386       7.104
  WS02006231           JUNCTION      0.13    17.56     0  01:40      0.0197       0.396       3.803
  WS02006232           JUNCTION      3.54    22.42     0  01:40       0.142       0.468       3.181
  WS02006234           JUNCTION      0.14    24.66     0  01:40      0.0208       0.417       3.373
  WS02006235           JUNCTION      0.14    24.92     0  01:40      0.0215       0.418       2.015
  WS02006238           JUNCTION      0.15    26.82     0  01:40      0.0226       0.421       2.328
  WS02006239           JUNCTION      0.11    30.08     0  01:41      0.0167       0.425       3.089
  WS02006242           JUNCTION      0.08    36.87     0  01:41      0.0124       0.451       4.315
  WS02006240           JUNCTION      0.06    32.03     0  01:41     0.00952       0.434       3.825
  WS02006243           JUNCTION      0.17    34.33     0  01:41      0.0259       0.468       3.623
  WS02006245           JUNCTION      0.07    34.19     0  01:41      0.0109       0.469       2.830
  WS02006247           JUNCTION      2.96    34.29     0  01:41       0.141       0.559       1.959
  WS02006248           JUNCTION      0.12    38.91     0  02:45      0.0185        1.42       0.751
  WS02006249           JUNCTION      0.19    38.79     0  02:45      0.0275        1.18       1.227
  WS02006251           JUNCTION      1.56    38.63     0  02:45      0.0647        1.17       1.256
  WS02006253           JUNCTION      0.11    37.77     0  02:45      0.0166        1.13       0.637
  WS02618401           JUNCTION      0.00     0.00     0  00:00           0           0       0.000 ltr
  WSA1649              JUNCTION      0.00     0.00     0  00:00           0           0       0.000 ltr
  outfall-5            OUTFALL       0.00    35.37     0  02:40           0        1.14       0.000
  outfall-14           OUTFALL       0.00    17.02     0  02:45           0       0.744       0.000
  outfall-16           OUTFALL       0.00     0.00     0  00:00           0           0       0.000 ltr
  CC-storage           STORAGE      15.45    15.45     0  03:01       0.841       0.841     -11.803
  
  
  **********************
  Node Surcharge Summary
  **********************
  
  Surcharging occurs when water rises above the top of the highest conduit.
  ---------------------------------------------------------------------
                                               Max. Height   Min. Depth
                                   Hours       Above Crown    Below Rim
  Node                 Type      Surcharged         Meters       Meters
  ---------------------------------------------------------------------
  WS01000070           JUNCTION        3.83          0.000        0.000
  WS01000323           JUNCTION        3.83          0.000        0.000
  WS01000533           JUNCTION        3.83          0.000        2.147
  WS01005172           JUNCTION        3.83          0.000        0.000
  WS01005181           JUNCTION        3.83          0.000        0.000
  WS01009841           JUNCTION        3.83          0.000        0.000
  WS02000078           JUNCTION        3.83          0.000        0.000
  WS02000112           JUNCTION        3.83          0.000        0.000
  WS02000136           JUNCTION        3.83          0.000        0.000
  WS02004053           JUNCTION        3.83          0.000        0.000
  WS02005192           JUNCTION        0.21          0.976        1.843
  WS02005193           JUNCTION        0.31          0.114        2.503
  WS02005196           JUNCTION        0.23          0.089        2.617
  WS02006109           JUNCTION        2.17          0.960        0.878
  WS02006110           JUNCTION        2.17          1.002        0.843
  WS02006111           JUNCTION        2.18          1.017        0.860
  WS02006112           JUNCTION        2.39          1.255        0.428
  WS02006113           JUNCTION        2.18          1.018        0.915
  WS02006115           JUNCTION        2.42          1.238        1.061
  WS02006116           JUNCTION        2.51          1.294        1.056
  WS02006183           JUNCTION        3.83          0.000        0.000
  WS02006228           JUNCTION        2.17          0.909        1.322
  WS02006229           JUNCTION        2.17          0.869        1.585
  WS02006231           JUNCTION        2.16          0.764        0.779
  WS02006232           JUNCTION        2.15          0.637        0.852
  WS02006234           JUNCTION        2.15          0.533        0.724
  WS02006235           JUNCTION        2.14          0.565        0.729
  WS02006238           JUNCTION        2.14          0.555        0.879
  WS02006239           JUNCTION        2.14          0.530        0.799
  WS02006242           JUNCTION        2.13          0.693        0.156
  WS02006240           JUNCTION        2.14          0.482        0.921
  WS02006243           JUNCTION        2.11          0.723        0.057
  WS02006245           JUNCTION        2.08          0.566        0.289
  WS02006247           JUNCTION        2.07          0.760        0.000
  WS02006249           JUNCTION        0.73          0.167        0.221
  WS02006251           JUNCTION        0.45          0.270        1.240
  WS02006253           JUNCTION        0.12          0.035        2.419
  WS02618401           JUNCTION        3.83          0.000        0.000
  WSA1649              JUNCTION        3.83          0.000        0.000
  
  
  *********************
  Node Flooding Summary
  *********************
  
  Flooding refers to all water that overflows a node, whether it ponds or not.
  --------------------------------------------------------------------------
                                                             Total   Maximum
                                 Maximum   Time of Max       Flood    Ponded
                        Hours       Rate    Occurrence      Volume     Depth
  Node                 Flooded       MLD   days hr:min    10^6 ltr    Meters
  --------------------------------------------------------------------------
  WS02006247              0.01      9.94      0  01:43       0.000     0.000
  CC-storage              0.31      8.80      0  03:16       0.084     0.000
  
  
  **********************
  Storage Volume Summary
  **********************
  
  --------------------------------------------------------------------------------------------------
                         Average     Avg  Evap Exfil       Maximum     Max    Time of Max    Maximum
                          Volume    Pcnt  Pcnt  Pcnt        Volume    Pcnt     Occurrence    Outflow
  Storage Unit           1000 m3    Full  Loss  Loss       1000 m3    Full    days hr:min        MLD
  --------------------------------------------------------------------------------------------------
  CC-storage               0.075      47     0     0         0.159     100       0  02:28      34.56
  
  
  ***********************
  Outfall Loading Summary
  ***********************
  
  ---------------------------------------------------------------------------------------------------------------------------------
                         Flow       Avg       Max       Total         Total         Total         Total         Total         Total
                         Freq      Flow      Flow      Volume           COD         NH3-N            TN            TP            SS
  Outfall Node           Pcnt       MLD       MLD    10^6 ltr            kg            kg            kg            kg            kg
  ---------------------------------------------------------------------------------------------------------------------------------
  outfall-5             88.23     14.79     35.37       1.139       124.075         0.000         0.000         0.000         0.000
  outfall-14            89.71      9.14     17.02       0.744       103.608         0.000         0.000         0.000         0.000
  outfall-16             0.00      0.00      0.00       0.000         0.000         0.000         0.000         0.000         0.000
  ---------------------------------------------------------------------------------------------------------------------------------
  System                59.31     23.93     51.26       1.883       227.684         0.000         0.000         0.000         0.000
  
  
  ********************
  Link Flow Summary
  ********************
  
  -----------------------------------------------------------------------------
                                 Maximum  Time of Max   Maximum    Max/    Max/
                                  |Flow|   Occurrence   |Veloc|    Full    Full
  Link                 Type          MLD  days hr:min     m/sec    Flow   Depth
  -----------------------------------------------------------------------------
  WSL2038              CONDUIT      8.98     0  01:47      0.57    0.45    1.00
  WSL2039              CONDUIT     15.71     0  03:44      0.98    0.81    1.00
  WSL2041              CONDUIT     11.80     0  03:44      0.81    0.58    1.00
  WSL2294              CONDUIT     13.18     0  02:45      0.43    0.44    1.00
  WSL2295              CONDUIT     13.25     0  02:45      0.50    0.60    1.00
  WSL2296              CONDUIT     16.52     0  02:45      0.63    0.09    1.00
  WSL2297              CONDUIT     16.68     0  02:45      0.34    0.32    1.00
  WSL2298              CONDUIT     16.31     0  02:45      0.87    0.75    1.00
  WSL2301              CONDUIT     16.76     0  02:45      0.29    0.15    1.00
  WSL2302              CONDUIT     16.97     0  02:45      0.25    0.21    1.00
  WSL2441              CONDUIT     13.10     0  02:45      0.44    0.34    1.00
  WSL2442              CONDUIT     12.21     0  01:39      0.63    0.31    1.00
  WSL2443              CONDUIT     14.01     0  01:39      0.73    0.22    1.00
  WSL2444              CONDUIT     17.43     0  01:40      0.87    0.28    1.00
  WSL2446              CONDUIT     21.75     0  01:40      1.06    0.37    1.00
  WSL2447              CONDUIT     24.52     0  01:40      1.28    1.26    1.00
  WSL2448              CONDUIT     24.78     0  01:40      1.21    0.70    1.00
  WSL2449              CONDUIT     26.66     0  01:40      1.19    0.93    1.00
  WSL2450              CONDUIT     29.97     0  01:41      1.27    0.62    1.00
  WSL2451              CONDUIT     31.97     0  01:41      1.28    2.08    1.00
  WSL2452              CONDUIT     36.79     0  01:41      1.33    0.70    1.00
  WSL2454              CONDUIT     34.16     0  01:41      1.46    0.80    1.00
  WSL2478              CONDUIT     34.12     0  01:41      1.41    1.20    1.00
  WSL2479              CONDUIT     33.78     0  01:41      1.41    0.64    1.00
  WSL2480              CONDUIT     38.79     0  02:45      1.42    1.79    1.00
  WSL2482              CONDUIT     38.63     0  02:45      1.35    1.01    1.00
  WSL2484              CONDUIT     37.76     0  02:45      1.51    0.53    1.00
  WSL2493              CONDUIT     10.81     0  01:39      0.51    0.18    1.00
  8                    CONDUIT     35.37     0  02:40      6.86    0.47    0.48
  19                   CONDUIT      0.00     0  00:00      0.00    0.00    0.00
  17                   CONDUIT     17.02     0  02:45      5.69    0.22    0.32
  CC-Pump-1            PUMP        17.28     0  02:40              1.00
  CC-Pump-2            PUMP        17.28     0  02:40              1.00
  
  
  ***************************
  Flow Classification Summary
  ***************************
  
  -------------------------------------------------------------------------------------
                      Adjusted    ---------- Fraction of Time in Flow Class ---------- 
                       /Actual         Up    Down  Sub   Sup   Up    Down  Norm  Inlet 
  Conduit               Length    Dry  Dry   Dry   Crit  Crit  Crit  Crit  Ltd   Ctrl  
  -------------------------------------------------------------------------------------
  WSL2038                 1.00   0.00  0.00  0.00  1.00  0.00  0.00  0.00  0.01  0.00
  WSL2039                 1.00   0.00  0.00  0.00  1.00  0.00  0.00  0.00  0.01  0.00
  WSL2041                 1.00   0.00  0.00  0.00  1.00  0.00  0.00  0.00  0.35  0.00
  WSL2294                 1.00   0.00  0.00  0.00  1.00  0.00  0.00  0.00  0.00  0.00
  WSL2295                 1.00   0.00  0.00  0.00  1.00  0.00  0.00  0.00  0.00  0.00
  WSL2296                 1.00   0.00  0.00  0.00  1.00  0.00  0.00  0.00  0.17  0.00
  WSL2297                 1.00   0.00  0.00  0.00  1.00  0.00  0.00  0.00  0.00  0.00
  WSL2298                 1.00   0.00  0.00  0.00  0.98  0.02  0.00  0.00  0.00  0.00
  WSL2301                 1.00   0.00  0.00  0.00  1.00  0.00  0.00  0.00  0.04  0.00
  WSL2302                 1.00   0.00  0.00  0.00  1.00  0.00  0.00  0.00  0.01  0.00
  WSL2441                 1.00   0.00  0.00  0.00  1.00  0.00  0.00  0.00  0.00  0.00
  WSL2442                 1.00   0.00  0.00  0.00  1.00  0.00  0.00  0.00  0.17  0.00
  WSL2443                 1.00   0.00  0.00  0.00  1.00  0.00  0.00  0.00  0.31  0.00
  WSL2444                 1.00   0.00  0.00  0.00  0.94  0.06  0.00  0.00  0.25  0.00
  WSL2446                 1.00   0.00  0.00  0.00  0.92  0.08  0.00  0.00  0.03  0.00
  WSL2447                 1.00   0.00  0.00  0.00  1.00  0.00  0.00  0.00  0.00  0.00
  WSL2448                 1.00   0.00  0.00  0.00  1.00  0.00  0.00  0.00  0.00  0.00
  WSL2449                 1.00   0.00  0.00  0.00  1.00  0.00  0.00  0.00  0.02  0.00
  WSL2450                 1.00   0.00  0.00  0.00  1.00  0.00  0.00  0.00  0.41  0.00
  WSL2451                 1.00   0.00  0.00  0.00  1.00  0.00  0.00  0.00  0.00  0.00
  WSL2452                 1.00   0.00  0.00  0.00  1.00  0.00  0.00  0.00  0.39  0.00
  WSL2454                 1.00   0.00  0.00  0.00  1.00  0.00  0.00  0.00  0.01  0.00
  WSL2478                 1.00   0.00  0.00  0.00  1.00  0.00  0.00  0.00  0.00  0.00
  WSL2479                 1.00   0.00  0.00  0.00  1.00  0.00  0.00  0.00  0.40  0.00
  WSL2480                 1.00   0.00  0.00  0.00  1.00  0.00  0.00  0.00  0.00  0.00
  WSL2482                 1.00   0.00  0.00  0.00  1.00  0.00  0.00  0.00  0.40  0.00
  WSL2484                 1.00   0.00  0.00  0.00  1.00  0.00  0.00  0.00  0.38  0.00
  WSL2493                 1.00   0.00  0.00  0.00  1.00  0.00  0.00  0.00  0.05  0.00
  8                       1.00   0.12  0.00  0.00  0.00  0.88  0.00  0.00  0.10  0.00
  19                      1.00   1.00  0.00  0.00  0.00  0.00  0.00  0.00  0.00  0.00
  17                      1.00   0.10  0.00  0.00  0.00  0.90  0.00  0.00  0.04  0.00
  
  
  *************************
  Conduit Surcharge Summary
  *************************
  
  ----------------------------------------------------------------------------
                                                           Hours        Hours 
                         --------- Hours Full --------   Above Full   Capacity
  Conduit                Both Ends  Upstream  Dnstream   Normal Flow   Limited
  ----------------------------------------------------------------------------
  WSL2038                     0.21      0.21      0.23      0.01         0.01
  WSL2039                     0.31      0.31      0.38      0.01         0.01
  WSL2041                     0.23      0.23      0.31      0.01         0.01
  WSL2294                     2.17      2.17      2.17      0.01         0.01
  WSL2295                     2.17      2.17      2.18      0.01         0.03
  WSL2296                     2.18      2.18      2.74      0.01         0.01
  WSL2297                     2.39      2.39      2.42      0.01         0.01
  WSL2298                     2.18      2.18      2.18      0.01         0.02
  WSL2301                     2.42      2.42      2.51      0.01         0.01
  WSL2302                     2.51      2.51      2.59      0.01         0.01
  WSL2441                     2.17      2.17      2.17      0.01         0.01
  WSL2442                     2.17      2.17      2.18      0.01         0.01
  WSL2443                     2.16      2.16      2.17      0.01         0.01
  WSL2444                     2.15      2.15      2.16      0.01         0.01
  WSL2446                     2.15      2.15      2.15      0.01         0.01
  WSL2447                     2.14      2.14      2.15      0.02         0.02
  WSL2448                     2.14      2.14      2.14      0.01         0.01
  WSL2449                     2.14      2.14      2.14      0.01         0.01
  WSL2450                     2.14      2.14      2.14      0.01         0.01
  WSL2451                     2.13      2.13      2.14      0.07         0.02
  WSL2452                     2.11      2.11      2.13      0.01         0.01
  WSL2454                     2.08      2.08      2.11      0.01         0.01
  WSL2478                     2.07      2.07      2.08      0.05         0.01
  WSL2479                     0.94      0.94      2.07      0.01         0.01
  WSL2480                     0.73      0.73      0.94      0.55         0.47
  WSL2482                     0.45      0.45      0.73      0.05         0.08
  WSL2484                     0.12      0.12      0.45      0.01         0.01
  WSL2493                     2.17      2.17      2.17      0.01         0.01
  
  
  ***************
  Pumping Summary
  ***************
  
  ---------------------------------------------------------------------------------------------------------
                                                  Min       Avg       Max     Total     Power    % Time Off
                        Percent   Number of      Flow      Flow      Flow    Volume     Usage    Pump Curve
  Pump                 Utilized   Start-Ups       MLD       MLD       MLD  10^6 ltr     Kw-hr    Low   High
  ---------------------------------------------------------------------------------------------------------
  CC-Pump-1               30.42           3      0.00      9.55     17.28     0.435      3.78    0.0    0.0
  CC-Pump-2               30.42           3      0.00      9.55     17.28     0.435      3.78    0.0    0.0
  
  
  ***************************
  Link Pollutant Load Summary
  ***************************
  
  ------------------------------------------------------------------------------------------
                                 COD         NH3-N            TN            TP            SS
  Link                            kg            kg            kg            kg            kg
  ------------------------------------------------------------------------------------------
  WSL2038                     26.529         0.000         0.000         0.000         0.000
  WSL2039                     32.378         0.000         0.000         0.000         0.000
  WSL2041                     29.387         0.000         0.000         0.000         0.000
  WSL2294                    115.230         0.000         0.000         0.000         0.000
  WSL2295                    112.461         0.000         0.000         0.000         0.000
  WSL2296                    115.124         0.000         0.000         0.000         0.000
  WSL2297                    112.190         0.000         0.000         0.000         0.000
  WSL2298                    112.097         0.000         0.000         0.000         0.000
  WSL2301                    109.380         0.000         0.000         0.000         0.000
  WSL2302                    109.008         0.000         0.000         0.000         0.000
  WSL2441                    117.250         0.000         0.000         0.000         0.000
  WSL2442                     43.805         0.000         0.000         0.000         0.000
  WSL2443                     42.895         0.000         0.000         0.000         0.000
  WSL2444                     40.655         0.000         0.000         0.000         0.000
  WSL2446                     43.214         0.000         0.000         0.000         0.000
  WSL2447                     48.177         0.000         0.000         0.000         0.000
  WSL2448                     50.105         0.000         0.000         0.000         0.000
  WSL2449                     52.517         0.000         0.000         0.000         0.000
  WSL2450                     55.878         0.000         0.000         0.000         0.000
  WSL2451                     59.112         0.000         0.000         0.000         0.000
  WSL2452                     61.621         0.000         0.000         0.000         0.000
  WSL2454                     62.116         0.000         0.000         0.000         0.000
  WSL2478                     62.681         0.000         0.000         0.000         0.000
  WSL2479                     66.384         0.000         0.000         0.000         0.000
  WSL2480                    131.368         0.000         0.000         0.000         0.000
  WSL2482                    127.072         0.000         0.000         0.000         0.000
  WSL2484                    112.482         0.000         0.000         0.000         0.000
  WSL2493                     47.834         0.000         0.000         0.000         0.000
  8                          124.075         0.000         0.000         0.000         0.000
  19                           0.000         0.000         0.000         0.000         0.000
  17                         103.608         0.000         0.000         0.000         0.000
  CC-Pump-1                   39.175         0.000         0.000         0.000         0.000
  CC-Pump-2                   39.175         0.000         0.000         0.000         0.000
  

  Analysis begun on:  Tue Dec 17 09:48:07 2019
  Analysis ended on:  Tue Dec 17 09:48:07 2019
  Total elapsed time: < 1 sec