
  EPA STORM WATER MANAGEMENT MODEL - VERSION 5.1 (Build 5.3.0.dev0)
  --------------------------------------------------------------

  
  *********************************************************
  NOTE: The summary statistics displayed in this report are
  based on results found at every computational time step,  
  not just on results from each reporting time step.
  *********************************************************
  
  ****************
  Analysis Options
  ****************
  Flow Units ............... MLD
  Process Models:
    Rainfall/Runoff ........ YES
    RDII ................... NO
    Snowmelt ............... NO
    Groundwater ............ NO
    Flow Routing ........... YES
    Ponding Allowed ........ NO
    Water Quality .......... YES
  Infiltration Method ...... GREEN_AMPT
  Flow Routing Method ...... DYNWAVE
  Surcharge Method ......... EXTRAN
  Starting Date ............ 08/28/2015 08:00:00
  Ending Date .............. 08/28/2015 11:50:00
  Antecedent Dry Days ...... 4.0
  Report Time Step ......... 00:01:00
  Wet Time Step ............ 00:01:00
  Dry Time Step ............ 00:01:00
  Routing Time Step ........ 5.00 sec
  Variable Time Step ....... YES
  Maximum Trials ........... 8
  Number of Threads ........ 1
  Head Tolerance ........... 0.001500 m
  
  
  **************************        Volume         Depth
  Runoff Quantity Continuity     hectare-m            mm
  **************************     ---------       -------
  Total Precipitation ......         1.474        23.836
  Evaporation Loss .........         0.000         0.000
  Infiltration Loss ........         0.585         9.452
  Surface Runoff ...........         0.388         6.265
  Final Storage ............         0.502         8.120
  Continuity Error (%) .....        -0.005
  
  
  **************************           COD         NH3-N            TN            TP            SS
  Runoff Quality Continuity             kg            kg            kg            kg            kg
  **************************    ----------    ----------    ----------    ----------    ----------
  Initial Buildup ..........      2504.640         0.000         0.000         0.000         0.000
  Surface Buildup ..........        19.267         0.000         0.000         0.000         0.000
  Wet Deposition ...........         0.000         0.000         0.000         0.000         0.000
  Sweeping Removal .........         0.000         0.000         0.000         0.000         0.000
  Infiltration Loss ........       158.687         0.000         0.000         0.000         0.000
  BMP Removal ..............         0.000         0.000         0.000         0.000         0.000
  Surface Runoff ...........       692.943         0.000         0.000         0.000         0.000
  Remaining Buildup ........      1670.990         0.000         0.000         0.000         0.000
  Continuity Error (%) .....         0.051         0.000         0.000         0.000         0.000
  
  
  **************************        Volume        Volume
  Flow Routing Continuity        hectare-m      10^6 ltr
  **************************     ---------     ---------
  Dry Weather Inflow .......         0.000         0.000
  Wet Weather Inflow .......         0.387         3.867
  Groundwater Inflow .......         0.000         0.000
  RDII Inflow ..............         0.000         0.000
  External Inflow ..........         0.082         0.822
  External Outflow .........         0.384         3.845
  Flooding Loss ............         0.027         0.272
  Evaporation Loss .........         0.000         0.000
  Exfiltration Loss ........         0.000         0.000
  Initial Stored Volume ....         0.000         0.000
  Final Stored Volume ......         0.062         0.621
  Continuity Error (%) .....        -1.052
  
  
  **************************           COD         NH3-N            TN            TP            SS
  Quality Routing Continuity            kg            kg            kg            kg            kg
  **************************    ----------    ----------    ----------    ----------    ----------
  Dry Weather Inflow .......         0.000         0.000         0.000         0.000         0.000
  Wet Weather Inflow .......       691.741         0.000         0.000         0.000         0.000
  Groundwater Inflow .......         0.000         0.000         0.000         0.000         0.000
  RDII Inflow ..............         0.000         0.000         0.000         0.000         0.000
  External Inflow ..........       137.263         0.000         0.000         0.000         0.000
  External Outflow .........       669.304         0.000         0.000         0.000         0.000
  Flooding Loss ............        43.332         0.000         0.000         0.000         0.000
  Exfiltration Loss ........         0.000         0.000         0.000         0.000         0.000
  Mass Reacted .............         0.000         0.000         0.000         0.000         0.000
  Initial Stored Mass ......         0.000         0.000         0.000         0.000         0.000
  Final Stored Mass ........        89.337         0.000         0.000         0.000         0.000
  Continuity Error (%) .....         3.261         0.000         0.000         0.000         0.000
  
  
  *************************
  Highest Continuity Errors
  *************************
  Node WS02006230 (5.54%)
  Node WS02006242 (3.76%)
  Node WS02006229 (3.44%)
  Node WS02006231 (3.14%)
  Node WS02006240 (3.13%)
  
  
  ***************************
  Time-Step Critical Elements
  ***************************
  Link 8 (84.87%)
  Link 17 (7.93%)
  Link WSL2448 (6.07%)
  
  
  ********************************
  Highest Flow Instability Indexes
  ********************************
  Link WSL2302 (2)
  Link WSL2301 (2)
  Link WSL2297 (2)
  Link WSL2296 (1)
  
  
  *************************
  Routing Time Step Summary
  *************************
  Minimum Time Step           :     0.50 sec
  Average Time Step           :     0.84 sec
  Maximum Time Step           :     5.00 sec
  Percent in Steady State     :     0.00
  Average Iterations per Step :     2.11
  Percent Not Converging      :     1.31
  
  
  ***************************
  Subcatchment Runoff Summary
  ***************************
  
  ------------------------------------------------------------------------------------------------------------------------------
                            Total      Total      Total      Total     Imperv       Perv      Total       Total     Peak  Runoff
                           Precip      Runon       Evap      Infil     Runoff     Runoff     Runoff      Runoff   Runoff   Coeff
  Subcatchment                 mm         mm         mm         mm         mm         mm         mm    10^6 ltr      MLD
  ------------------------------------------------------------------------------------------------------------------------------
  1                         23.84      33.49       0.00      11.36      13.73      17.29      31.02        0.38     5.23   0.541
  2                         23.84       0.00       0.00       8.90       5.74       3.24       8.98        0.30     4.22   0.377
  3                         23.84       0.00       0.00       8.99       5.69       2.77       8.46        0.43     5.98   0.355
  35                        23.84       0.00       0.00       8.88       5.76       3.36       9.12        0.28     3.86   0.383
  36                        23.84      18.55       0.00      11.03       9.90       6.92      16.82        0.99    13.15   0.397
  40                        23.84       4.82       0.00       9.53       6.84       4.24      11.08        0.43     5.66   0.387
  41                        23.84       0.00       0.00       8.77       5.80       3.93       9.73        0.19     2.63   0.408
  42                        23.84       0.00       0.00       8.81       5.79       3.72       9.51        0.22     3.03   0.399
  43                        23.84       0.00       0.00       8.23       5.90       6.39      12.29        0.04     0.61   0.516
  44                        23.84     278.98       0.00      17.62      74.32     173.86     248.18        0.92    12.24   0.820
  45                        23.84       0.00       0.00       8.59       5.85       4.82      10.67        0.11     1.52   0.448
  46                        23.84      15.58       0.00      10.41       9.44       8.71      18.16        0.39     5.26   0.461
  47                        23.84       0.00       0.00       8.61       5.85       4.71      10.55        0.12     1.63   0.443
  48                        23.84       7.40       0.00       9.53       7.56       6.65      14.21        0.22     3.02   0.455
  55                        23.84      11.09       0.00       9.62       8.51       9.54      18.05        0.15     2.05   0.517
  56                        23.84      17.06       0.00      10.53       9.79       9.22      19.01        0.41     5.52   0.465
  57                        23.84       0.00       0.00       8.98       5.69       2.79       8.48        0.42     5.88   0.356
  59                        23.84       0.00       0.00       8.53       5.86       5.12      10.98        0.09     1.28   0.461
  60                        23.84      24.03       0.00      10.37      11.69      17.02      28.71        0.15     2.04   0.600
  61                        23.84       0.00       0.00       9.18       5.43       1.65       7.08        1.27    16.87   0.297
  64                        23.84       0.00       0.00       8.64       5.84       4.60      10.44        0.13     1.74   0.438
  
  
  ****************************
  Subcatchment Washoff Summary
  ****************************
  
  ------------------------------------------------------------------------------------------
                                 COD         NH3-N            TN            TP            SS
  Subcatchment                    kg            kg            kg            kg            kg
  ------------------------------------------------------------------------------------------
  1                           68.667         0.000         0.000         0.000         0.000
  2                            0.000         0.000         0.000         0.000         0.000
  3                            0.000         0.000         0.000         0.000         0.000
  35                          52.729         0.000         0.000         0.000         0.000
  36                         318.382         0.000         0.000         0.000         0.000
  40                         102.619         0.000         0.000         0.000         0.000
  41                          37.172         0.000         0.000         0.000         0.000
  42                          42.204         0.000         0.000         0.000         0.000
  43                           9.509         0.000         0.000         0.000         0.000
  44                         296.021         0.000         0.000         0.000         0.000
  45                          22.478         0.000         0.000         0.000         0.000
  46                         118.729         0.000         0.000         0.000         0.000
  47                          23.865         0.000         0.000         0.000         0.000
  48                          59.120         0.000         0.000         0.000         0.000
  55                          41.451         0.000         0.000         0.000         0.000
  56                         123.039         0.000         0.000         0.000         0.000
  57                          77.861         0.000         0.000         0.000         0.000
  59                          19.076         0.000         0.000         0.000         0.000
  60                          39.711         0.000         0.000         0.000         0.000
  61                         208.943         0.000         0.000         0.000         0.000
  64                          25.399         0.000         0.000         0.000         0.000
  ------------------------------------------------------------------------------------------
  System                    1686.974         0.000         0.000         0.000         0.000
  
  
  ******************
  Node Depth Summary
  ******************
  
  ---------------------------------------------------------------------------------
                                 Average  Maximum  Maximum  Time of Max    Reported
                                   Depth    Depth      HGL   Occurrence   Max Depth
  Node                 Type       Meters   Meters   Meters  days hr:min      Meters
  ---------------------------------------------------------------------------------
  WS01000070           JUNCTION     0.00     0.00     0.00     0  00:00        0.00
  WS01000323           JUNCTION     0.00     0.00     0.00     0  00:00        0.00
  WS01000533           JUNCTION     0.00     0.00     6.86     0  00:00        0.00
  WS01005172           JUNCTION     0.00     0.00     0.00     0  00:00        0.00
  WS01005181           JUNCTION     0.00     0.00     0.00     0  00:00        0.00
  WS01009841           JUNCTION     0.00     0.00     0.00     0  00:00        0.00
  WS02000078           JUNCTION     0.00     0.00     0.00     0  00:00        0.00
  WS02000112           JUNCTION     0.00     0.00     0.00     0  00:00        0.00
  WS02000136           JUNCTION     0.00     0.00     0.00     0  00:00        0.00
  WS02004053           JUNCTION     0.00     0.00     0.00     0  00:00        0.00
  WS02004401           JUNCTION     2.21     2.36     8.36     0  03:01        2.36
  WS02005192           JUNCTION     0.49     3.42    11.29     0  01:30        0.74
  WS02005193           JUNCTION     0.54     3.22    11.04     0  01:30        0.78
  WS02005196           JUNCTION     0.51     3.31    11.16     0  01:30        0.76
  WS02006109           JUNCTION     1.62     1.89     8.51     0  01:30        1.88
  WS02006110           JUNCTION     1.64     1.89     8.49     0  01:30        1.87
  WS02006111           JUNCTION     1.65     1.84     8.42     0  01:30        1.83
  WS02006112           JUNCTION     2.10     2.27     8.39     0  01:30        2.26
  WS02006113           JUNCTION     1.64     1.87     8.46     0  01:30        1.84
  WS02006115           JUNCTION     2.11     2.27     8.37     0  02:59        2.26
  WS02006116           JUNCTION     2.17     2.33     8.37     0  02:59        2.32
  WS02006183           JUNCTION     0.00     0.00     0.00     0  00:00        0.00
  WS02006228           JUNCTION     1.60     1.90     8.55     0  01:30        1.90
  WS02006229           JUNCTION     1.56     1.87     8.56     0  01:30        1.84
  WS02006230           JUNCTION     1.50     1.84     8.59     0  01:30        1.83
  WS02006231           JUNCTION     1.36     1.69     8.59     0  01:29        1.65
  WS02006232           JUNCTION     1.23     1.60     8.63     0  01:29        1.50
  WS02006234           JUNCTION     1.11     1.55     8.71     0  01:29        1.34
  WS02006235           JUNCTION     1.10     1.61     8.78     0  01:29        1.31
  WS02006238           JUNCTION     1.09     1.60     8.78     0  01:29        1.29
  WS02006239           JUNCTION     1.07     1.54     8.75     0  01:29        1.24
  WS02006242           JUNCTION     0.98     1.53     8.83     0  01:29        1.12
  WS02006240           JUNCTION     0.99     1.47     8.76     0  01:29        1.14
  WS02006243           JUNCTION     0.87     1.48     8.90     0  01:29        1.00
  WS02006245           JUNCTION     0.80     1.55     9.04     0  01:29        0.93
  WS02006247           JUNCTION     0.78     1.46     8.97     0  01:29        0.92
  WS02006248           JUNCTION     0.71     0.85     8.44     0  01:31        0.85
  WS02006249           JUNCTION     0.71     1.09     8.69     0  01:29        0.86
  WS02006251           JUNCTION     0.67     2.21     9.88     0  01:30        0.88
  WS02006253           JUNCTION     0.55     2.97    10.77     0  01:30        0.79
  WS02618401           JUNCTION     0.00     0.00     0.00     0  00:00        0.00
  WSA1649              JUNCTION     0.00     0.00     0.00     0  00:00        0.00
  outfall-5            OUTFALL      0.14     0.23     7.90     0  01:31        0.23
  outfall-14           OUTFALL      0.11     0.16     7.82     0  03:01        0.16
  outfall-16           OUTFALL      0.00     0.00     8.39     0  00:00        0.00
  CC-storage           STORAGE      3.30     5.63     8.81     0  01:45        5.63
  
  
  *******************
  Node Inflow Summary
  *******************
  
  -------------------------------------------------------------------------------------------------
                                  Maximum  Maximum                  Lateral       Total        Flow
                                  Lateral    Total  Time of Max      Inflow      Inflow     Balance
                                   Inflow   Inflow   Occurrence      Volume      Volume       Error
  Node                 Type           MLD      MLD  days hr:min    10^6 ltr    10^6 ltr     Percent
  -------------------------------------------------------------------------------------------------
  WS01000070           JUNCTION      0.00     0.00     0  00:00           0           0       0.000 ltr
  WS01000323           JUNCTION      0.00     0.00     0  00:00           0           0       0.000 ltr
  WS01000533           JUNCTION      0.00     0.00     0  00:00           0           0       0.000 ltr
  WS01005172           JUNCTION      0.00     0.00     0  00:00           0           0       0.000 ltr
  WS01005181           JUNCTION      0.00     0.00     0  00:00           0           0       0.000 ltr
  WS01009841           JUNCTION      0.00     0.00     0  00:00           0           0       0.000 ltr
  WS02000078           JUNCTION      0.00     0.00     0  00:00           0           0       0.000 ltr
  WS02000112           JUNCTION      0.00     0.00     0  00:00           0           0       0.000 ltr
  WS02000136           JUNCTION      0.00     0.00     0  00:00           0           0       0.000 ltr
  WS02004053           JUNCTION      0.00     0.00     0  00:00           0           0       0.000 ltr
  WS02004401           JUNCTION      0.05    25.12     0  03:01      0.0086        1.59       1.827
  WS02005192           JUNCTION      6.00    11.72     0  01:30        0.44        0.44       0.532
  WS02005193           JUNCTION      0.09    18.46     0  01:30       0.014       0.469       1.485
  WS02005196           JUNCTION      0.12    13.06     0  01:30      0.0183       0.458       1.416
  WS02006109           JUNCTION      0.08    18.75     0  03:00      0.0129         1.2       2.052
  WS02006110           JUNCTION      0.08    18.82     0  03:00      0.0126        1.19       2.088
  WS02006111           JUNCTION      0.24    24.65     0  03:01      0.0352        1.62       1.278
  WS02006112           JUNCTION      0.18    24.79     0  03:01      0.0263        1.63       2.017
  WS02006113           JUNCTION      6.15    24.45     0  03:01       0.456        1.62       1.474
  WS02006115           JUNCTION      0.08    24.87     0  03:01      0.0129        1.61       2.339
  WS02006116           JUNCTION      0.24    25.07     0  03:01      0.0347        1.61       2.104
  WS02006183           JUNCTION      0.00     0.00     0  00:00           0           0       0.000 ltr
  WS02006228           JUNCTION     12.39    18.68     0  03:00       0.943        1.29       1.396
  WS02006229           JUNCTION      0.13    11.44     0  01:30      0.0193       0.454       3.564
  WS02006230           JUNCTION      0.07    13.98     0  01:29      0.0111       0.462       5.862
  WS02006231           JUNCTION      0.13    13.25     0  01:29      0.0197       0.468       3.239
  WS02006232           JUNCTION      4.31    12.95     0  01:29       0.315       0.613       2.506
  WS02006234           JUNCTION      0.14    13.74     0  01:27      0.0208       0.462       3.055
  WS02006235           JUNCTION      0.14    14.26     0  01:26      0.0215       0.462       1.601
  WS02006238           JUNCTION      0.15    17.60     0  01:27      0.0226       0.469       2.322
  WS02006239           JUNCTION      0.11    26.38     0  01:28      0.0167       0.476       2.741
  WS02006242           JUNCTION      0.08    36.23     0  01:28      0.0124       0.502       3.911
  WS02006240           JUNCTION      0.06    27.59     0  01:28     0.00952       0.485       3.228
  WS02006243           JUNCTION      0.17    32.43     0  01:29      0.0259       0.522       3.207
  WS02006245           JUNCTION      0.07    34.45     0  01:29      0.0109       0.524       2.534
  WS02006247           JUNCTION      5.36    37.53     0  01:29       0.398       0.852       1.248
  WS02006248           JUNCTION      0.12    46.46     0  01:30      0.0185        2.46       0.430
  WS02006249           JUNCTION      0.19    42.38     0  02:59      0.0275        1.84       0.772
  WS02006251           JUNCTION      2.11    42.21     0  02:59       0.159        1.82       0.772
  WS02006253           JUNCTION      0.11    40.40     0  01:30      0.0166        1.67       0.432
  WS02618401           JUNCTION      0.00     0.00     0  00:00           0           0       0.000 ltr
  WSA1649              JUNCTION      0.00     0.00     0  00:00           0           0       0.000 ltr
  outfall-5            OUTFALL       0.00    48.47     0  01:31           0        2.29       0.000
  outfall-14           OUTFALL       0.00    25.12     0  03:01           0        1.55       0.000
  outfall-16           OUTFALL       0.00     0.00     0  00:00           0           0       0.000 ltr
  CC-storage           STORAGE      18.79    18.79     0  01:44        1.55        1.55      -4.807
  
  
  **********************
  Node Surcharge Summary
  **********************
  
  Surcharging occurs when water rises above the top of the highest conduit.
  ---------------------------------------------------------------------
                                               Max. Height   Min. Depth
                                   Hours       Above Crown    Below Rim
  Node                 Type      Surcharged         Meters       Meters
  ---------------------------------------------------------------------
  WS01000070           JUNCTION        3.83          0.000        0.000
  WS01000323           JUNCTION        3.83          0.000        0.000
  WS01000533           JUNCTION        3.83          0.000        2.147
  WS01005172           JUNCTION        3.83          0.000        0.000
  WS01005181           JUNCTION        3.83          0.000        0.000
  WS01009841           JUNCTION        3.83          0.000        0.000
  WS02000078           JUNCTION        3.83          0.000        0.000
  WS02000112           JUNCTION        3.83          0.000        0.000
  WS02000136           JUNCTION        3.83          0.000        0.000
  WS02004053           JUNCTION        3.83          0.000        0.000
  WS02005192           JUNCTION        0.57          2.819        0.000
  WS02005193           JUNCTION        0.71          2.617        0.000
  WS02005196           JUNCTION        0.62          2.706        0.000
  WS02006109           JUNCTION        2.40          1.093        0.745
  WS02006110           JUNCTION        2.40          1.088        0.757
  WS02006111           JUNCTION        2.41          1.041        0.836
  WS02006112           JUNCTION        2.52          1.275        0.408
  WS02006113           JUNCTION        2.41          1.068        0.865
  WS02006115           JUNCTION        2.52          1.274        1.025
  WS02006116           JUNCTION        2.58          1.330        1.020
  WS02006183           JUNCTION        3.83          0.000        0.000
  WS02006228           JUNCTION        2.40          1.097        1.134
  WS02006229           JUNCTION        2.39          1.074        1.380
  WS02006231           JUNCTION        2.38          0.988        0.555
  WS02006232           JUNCTION        2.37          0.904        0.585
  WS02006234           JUNCTION        2.36          0.853        0.404
  WS02006235           JUNCTION        2.37          0.910        0.384
  WS02006238           JUNCTION        2.37          0.903        0.531
  WS02006239           JUNCTION        2.36          0.840        0.489
  WS02006242           JUNCTION        2.35          0.830        0.019
  WS02006240           JUNCTION        2.36          0.771        0.632
  WS02006243           JUNCTION        2.35          0.780        0.000
  WS02006245           JUNCTION        2.34          0.855        0.000
  WS02006247           JUNCTION        2.34          0.760        0.000
  WS02006249           JUNCTION        1.98          0.388        0.000
  WS02006251           JUNCTION        0.89          1.510        0.000
  WS02006253           JUNCTION        0.46          2.273        0.181
  WS02618401           JUNCTION        3.83          0.000        0.000
  WSA1649              JUNCTION        3.83          0.000        0.000
  
  
  *********************
  Node Flooding Summary
  *********************
  
  Flooding refers to all water that overflows a node, whether it ponds or not.
  --------------------------------------------------------------------------
                                                             Total   Maximum
                                 Maximum   Time of Max       Flood    Ponded
                        Hours       Rate    Occurrence      Volume     Depth
  Node                 Flooded       MLD   days hr:min    10^6 ltr    Meters
  --------------------------------------------------------------------------
  WS02005192              0.01      8.63      0  01:30       0.000     0.000
  WS02005193              0.01     12.82      0  01:30       0.000     0.000
  WS02005196              0.01      2.84      0  01:30       0.000     0.000
  WS02006243              0.01      3.89      0  01:29       0.000     0.000
  WS02006245              0.01      4.27      0  01:29       0.000     0.000
  WS02006247              0.01     20.03      0  01:29       0.001     0.000
  WS02006249              0.01     21.16      0  01:29       0.001     0.000
  WS02006251              0.01      9.31      0  01:30       0.000     0.000
  CC-storage              0.67     18.78      0  01:45       0.271     0.000
  
  
  **********************
  Storage Volume Summary
  **********************
  
  --------------------------------------------------------------------------------------------------
                         Average     Avg  Evap Exfil       Maximum     Max    Time of Max    Maximum
                          Volume    Pcnt  Pcnt  Pcnt        Volume    Pcnt     Occurrence    Outflow
  Storage Unit           1000 m3    Full  Loss  Loss       1000 m3    Full    days hr:min        MLD
  --------------------------------------------------------------------------------------------------
  CC-storage               0.093      59     0     0         0.159     100       0  01:45      34.56
  
  
  ***********************
  Outfall Loading Summary
  ***********************
  
  ---------------------------------------------------------------------------------------------------------------------------------
                         Flow       Avg       Max       Total         Total         Total         Total         Total         Total
                         Freq      Flow      Flow      Volume           COD         NH3-N            TN            TP            SS
  Outfall Node           Pcnt       MLD       MLD    10^6 ltr            kg            kg            kg            kg            kg
  ---------------------------------------------------------------------------------------------------------------------------------
  outfall-5             92.76     24.55     48.47       2.294       379.109         0.000         0.000         0.000         0.000
  outfall-14            92.82     16.29     25.12       1.551       290.212         0.000         0.000         0.000         0.000
  outfall-16             0.00      0.00      0.00       0.000         0.000         0.000         0.000         0.000         0.000
  ---------------------------------------------------------------------------------------------------------------------------------
  System                61.86     40.84     71.28       3.845       669.320         0.000         0.000         0.000         0.000
  
  
  ********************
  Link Flow Summary
  ********************
  
  -----------------------------------------------------------------------------
                                 Maximum  Time of Max   Maximum    Max/    Max/
                                  |Flow|   Occurrence   |Veloc|    Full    Full
  Link                 Type          MLD  days hr:min     m/sec    Flow   Depth
  -----------------------------------------------------------------------------
  WSL2038              CONDUIT      6.79     0  01:30      0.61    0.34    1.00
  WSL2039              CONDUIT     12.85     0  01:30      0.87    0.66    1.00
  WSL2041              CONDUIT     10.21     0  01:30      0.66    0.50    1.00
  WSL2294              CONDUIT     18.75     0  03:00      0.43    0.63    1.00
  WSL2295              CONDUIT     18.82     0  03:00      0.50    0.85    1.00
  WSL2296              CONDUIT     24.65     0  03:01      0.63    0.14    1.00
  WSL2297              CONDUIT     24.80     0  03:01      0.37    0.48    1.00
  WSL2298              CONDUIT     24.45     0  03:01      0.87    1.13    1.00
  WSL2301              CONDUIT     24.88     0  03:01      0.37    0.23    1.00
  WSL2302              CONDUIT     25.07     0  03:01      0.37    0.31    1.00
  WSL2441              CONDUIT     18.68     0  03:00      0.44    0.48    1.00
  WSL2442              CONDUIT     11.31     0  01:30      0.63    0.29    1.00
  WSL2443              CONDUIT     13.34     0  01:29      0.73    0.21    1.00
  WSL2444              CONDUIT     13.12     0  01:29      1.00    0.21    1.00
  WSL2446              CONDUIT      9.02     0  01:29      0.93    0.15    1.00
  WSL2447              CONDUIT     12.02     0  01:26      0.95    0.62    1.00
  WSL2448              CONDUIT     14.12     0  01:26      0.91    0.40    1.00
  WSL2449              CONDUIT     17.45     0  01:27      0.99    0.61    1.00
  WSL2450              CONDUIT     23.22     0  01:28      1.14    0.48    1.00
  WSL2451              CONDUIT     25.85     0  01:28      1.19    1.69    1.00
  WSL2452              CONDUIT     33.70     0  01:28      1.29    0.64    1.00
  WSL2454              CONDUIT     32.25     0  01:29      1.46    0.75    1.00
  WSL2478              CONDUIT     34.38     0  01:29      1.41    1.21    1.00
  WSL2479              CONDUIT     34.97     0  01:29      1.35    0.66    1.00
  WSL2480              CONDUIT     42.38     0  02:59      1.40    1.96    1.00
  WSL2482              CONDUIT     42.21     0  02:59      1.36    1.10    1.00
  WSL2484              CONDUIT     40.18     0  02:59      1.48    0.57    1.00
  WSL2493              CONDUIT     11.45     0  01:30      0.51    0.19    1.00
  8                    CONDUIT     48.47     0  01:31      7.40    0.64    0.59
  19                   CONDUIT      0.00     0  00:00      0.00    0.00    0.00
  17                   CONDUIT     25.12     0  03:01      6.34    0.33    0.39
  CC-Pump-1            PUMP        17.28     0  02:00              1.00
  CC-Pump-2            PUMP        17.28     0  02:00              1.00
  
  
  ***************************
  Flow Classification Summary
  ***************************
  
  -------------------------------------------------------------------------------------
                      Adjusted    ---------- Fraction of Time in Flow Class ---------- 
                       /Actual         Up    Down  Sub   Sup   Up    Down  Norm  Inlet 
  Conduit               Length    Dry  Dry   Dry   Crit  Crit  Crit  Crit  Ltd   Ctrl  
  -------------------------------------------------------------------------------------
  WSL2038                 1.00   0.00  0.00  0.00  1.00  0.00  0.00  0.00  0.01  0.00
  WSL2039                 1.00   0.00  0.00  0.00  1.00  0.00  0.00  0.00  0.00  0.00
  WSL2041                 1.00   0.00  0.00  0.00  1.00  0.00  0.00  0.00  0.27  0.00
  WSL2294                 1.00   0.00  0.00  0.00  1.00  0.00  0.00  0.00  0.00  0.00
  WSL2295                 1.00   0.00  0.00  0.00  1.00  0.00  0.00  0.00  0.00  0.00
  WSL2296                 1.00   0.00  0.00  0.00  1.00  0.00  0.00  0.00  0.17  0.00
  WSL2297                 1.00   0.00  0.00  0.00  1.00  0.00  0.00  0.00  0.00  0.00
  WSL2298                 1.00   0.00  0.00  0.00  0.98  0.02  0.00  0.00  0.00  0.00
  WSL2301                 1.00   0.00  0.00  0.00  1.00  0.00  0.00  0.00  0.04  0.00
  WSL2302                 1.00   0.00  0.00  0.00  1.00  0.00  0.00  0.00  0.01  0.00
  WSL2441                 1.00   0.00  0.00  0.00  1.00  0.00  0.00  0.00  0.00  0.00
  WSL2442                 1.00   0.00  0.00  0.00  1.00  0.00  0.00  0.00  0.17  0.00
  WSL2443                 1.00   0.00  0.00  0.00  1.00  0.00  0.00  0.00  0.30  0.00
  WSL2444                 1.00   0.00  0.00  0.00  0.95  0.05  0.00  0.00  0.21  0.00
  WSL2446                 1.00   0.00  0.00  0.00  0.96  0.04  0.00  0.00  0.06  0.00
  WSL2447                 1.00   0.00  0.00  0.00  1.00  0.00  0.00  0.00  0.00  0.00
  WSL2448                 1.00   0.00  0.00  0.00  1.00  0.00  0.00  0.00  0.00  0.00
  WSL2449                 1.00   0.00  0.00  0.00  1.00  0.00  0.00  0.00  0.02  0.00
  WSL2450                 1.00   0.00  0.00  0.00  1.00  0.00  0.00  0.00  0.34  0.00
  WSL2451                 1.00   0.00  0.00  0.00  1.00  0.00  0.00  0.00  0.00  0.00
  WSL2452                 1.00   0.00  0.00  0.00  1.00  0.00  0.00  0.00  0.35  0.00
  WSL2454                 1.00   0.00  0.00  0.00  1.00  0.00  0.00  0.00  0.01  0.00
  WSL2478                 1.00   0.00  0.00  0.00  1.00  0.00  0.00  0.00  0.00  0.00
  WSL2479                 1.00   0.00  0.00  0.00  1.00  0.00  0.00  0.00  0.35  0.00
  WSL2480                 1.00   0.00  0.00  0.00  1.00  0.00  0.00  0.00  0.00  0.00
  WSL2482                 1.00   0.00  0.00  0.00  1.00  0.00  0.00  0.00  0.33  0.00
  WSL2484                 1.00   0.00  0.00  0.00  1.00  0.00  0.00  0.00  0.34  0.00
  WSL2493                 1.00   0.00  0.00  0.00  1.00  0.00  0.00  0.00  0.05  0.00
  8                       1.00   0.07  0.00  0.00  0.00  0.93  0.00  0.00  0.12  0.00
  19                      1.00   1.00  0.00  0.00  0.00  0.00  0.00  0.00  0.00  0.00
  17                      1.00   0.07  0.00  0.00  0.00  0.93  0.00  0.00  0.04  0.00
  
  
  *************************
  Conduit Surcharge Summary
  *************************
  
  ----------------------------------------------------------------------------
                                                           Hours        Hours 
                         --------- Hours Full --------   Above Full   Capacity
  Conduit                Both Ends  Upstream  Dnstream   Normal Flow   Limited
  ----------------------------------------------------------------------------
  WSL2038                     0.57      0.57      0.62      0.01         0.01
  WSL2039                     0.71      0.71      0.78      0.01         0.01
  WSL2041                     0.62      0.62      0.71      0.01         0.01
  WSL2294                     2.40      2.40      2.40      0.01         0.02
  WSL2295                     2.40      2.40      2.41      0.01         0.05
  WSL2296                     2.41      2.41      2.74      0.01         0.01
  WSL2297                     2.52      2.52      2.52      0.01         0.01
  WSL2298                     2.41      2.41      2.41      0.22         0.34
  WSL2301                     2.52      2.52      2.58      0.01         0.01
  WSL2302                     2.58      2.58      2.62      0.01         0.01
  WSL2441                     2.40      2.40      2.40      0.01         0.01
  WSL2442                     2.39      2.39      2.41      0.01         0.01
  WSL2443                     2.38      2.38      2.39      0.01         0.01
  WSL2444                     2.37      2.37      2.38      0.01         0.01
  WSL2446                     2.36      2.36      2.37      0.01         0.01
  WSL2447                     2.36      2.37      2.36      0.01         0.02
  WSL2448                     2.37      2.37      2.37      0.01         0.01
  WSL2449                     2.36      2.36      2.37      0.01         0.01
  WSL2450                     2.36      2.36      2.36      0.01         0.01
  WSL2451                     2.35      2.35      2.36      0.04         0.03
  WSL2452                     2.35      2.35      2.35      0.01         0.01
  WSL2454                     2.34      2.34      2.35      0.01         0.01
  WSL2478                     2.34      2.34      2.34      0.02         0.01
  WSL2479                     2.30      2.30      2.34      0.01         0.01
  WSL2480                     1.98      1.98      2.30      0.88         0.82
  WSL2482                     0.89      0.89      1.98      0.39         0.40
  WSL2484                     0.46      0.46      0.89      0.01         0.01
  WSL2493                     2.39      2.39      2.40      0.01         0.01
  
  
  ***************
  Pumping Summary
  ***************
  
  ---------------------------------------------------------------------------------------------------------
                                                  Min       Avg       Max     Total     Power    % Time Off
                        Percent   Number of      Flow      Flow      Flow    Volume     Usage    Pump Curve
  Pump                 Utilized   Start-Ups       MLD       MLD       MLD  10^6 ltr     Kw-hr    Low   High
  ---------------------------------------------------------------------------------------------------------
  CC-Pump-1               34.78           3      0.00     11.25     17.28     0.599      4.51    0.0    0.0
  CC-Pump-2               34.78           3      0.00     11.25     17.28     0.599      4.51    0.0    0.0
  
  
  ***************************
  Link Pollutant Load Summary
  ***************************
  
  ------------------------------------------------------------------------------------------
                                 COD         NH3-N            TN            TP            SS
  Link                            kg            kg            kg            kg            kg
  ------------------------------------------------------------------------------------------
  WSL2038                     80.942         0.000         0.000         0.000         0.000
  WSL2039                     86.245         0.000         0.000         0.000         0.000
  WSL2041                     84.313         0.000         0.000         0.000         0.000
  WSL2294                    306.203         0.000         0.000         0.000         0.000
  WSL2295                    300.885         0.000         0.000         0.000         0.000
  WSL2296                    302.156         0.000         0.000         0.000         0.000
  WSL2297                    299.660         0.000         0.000         0.000         0.000
  WSL2298                    299.500         0.000         0.000         0.000         0.000
  WSL2301                    296.115         0.000         0.000         0.000         0.000
  WSL2302                    295.347         0.000         0.000         0.000         0.000
  WSL2441                    311.292         0.000         0.000         0.000         0.000
  WSL2442                     46.547         0.000         0.000         0.000         0.000
  WSL2443                     37.988         0.000         0.000         0.000         0.000
  WSL2444                     32.215         0.000         0.000         0.000         0.000
  WSL2446                     33.017         0.000         0.000         0.000         0.000
  WSL2447                     37.371         0.000         0.000         0.000         0.000
  WSL2448                     39.341         0.000         0.000         0.000         0.000
  WSL2449                     42.705         0.000         0.000         0.000         0.000
  WSL2450                     47.432         0.000         0.000         0.000         0.000
  WSL2451                     52.339         0.000         0.000         0.000         0.000
  WSL2452                     58.319         0.000         0.000         0.000         0.000
  WSL2454                     63.521         0.000         0.000         0.000         0.000
  WSL2478                     68.271         0.000         0.000         0.000         0.000
  WSL2479                    121.784         0.000         0.000         0.000         0.000
  WSL2480                    304.945         0.000         0.000         0.000         0.000
  WSL2482                    302.350         0.000         0.000         0.000         0.000
  WSL2484                    260.792         0.000         0.000         0.000         0.000
  WSL2493                     61.312         0.000         0.000         0.000         0.000
  8                          379.109         0.000         0.000         0.000         0.000
  19                           0.000         0.000         0.000         0.000         0.000
  17                         290.212         0.000         0.000         0.000         0.000
  CC-Pump-1                   86.789         0.000         0.000         0.000         0.000
  CC-Pump-2                   86.789         0.000         0.000         0.000         0.000
  

  Analysis begun on:  Tue Dec 17 09:48:30 2019
  Analysis ended on:  Tue Dec 17 09:48:31 2019
  Total elapsed time: 00:00:01