
  EPA STORM WATER MANAGEMENT MODEL - VERSION 5.1 (Build 5.3.0.dev0)
  --------------------------------------------------------------

  
  *********************************************************
  NOTE: The summary statistics displayed in this report are
  based on results found at every computational time step,  
  not just on results from each reporting time step.
  *********************************************************
  
  ****************
  Analysis Options
  ****************
  Flow Units ............... MLD
  Process Models:
    Rainfall/Runoff ........ YES
    RDII ................... NO
    Snowmelt ............... NO
    Groundwater ............ NO
    Flow Routing ........... YES
    Ponding Allowed ........ NO
    Water Quality .......... YES
  Infiltration Method ...... GREEN_AMPT
  Flow Routing Method ...... DYNWAVE
  Surcharge Method ......... EXTRAN
  Starting Date ............ 08/28/2015 08:00:00
  Ending Date .............. 08/28/2015 11:50:00
  Antecedent Dry Days ...... 4.0
  Report Time Step ......... 00:01:00
  Wet Time Step ............ 00:01:00
  Dry Time Step ............ 00:01:00
  Routing Time Step ........ 5.00 sec
  Variable Time Step ....... YES
  Maximum Trials ........... 8
  Number of Threads ........ 1
  Head Tolerance ........... 0.001500 m
  
  
  **************************        Volume         Depth
  Runoff Quantity Continuity     hectare-m            mm
  **************************     ---------       -------
  Total Precipitation ......         1.035        16.729
  Evaporation Loss .........         0.000         0.000
  Infiltration Loss ........         0.499         8.073
  Surface Runoff ...........         0.235         3.791
  Final Storage ............         0.301         4.865
  Continuity Error (%) .....        -0.005
  
  
  **************************           COD         NH3-N            TN            TP            SS
  Runoff Quality Continuity             kg            kg            kg            kg            kg
  **************************    ----------    ----------    ----------    ----------    ----------
  Initial Buildup ..........      2504.640         0.000         0.000         0.000         0.000
  Surface Buildup ..........        19.555         0.000         0.000         0.000         0.000
  Wet Deposition ...........         0.000         0.000         0.000         0.000         0.000
  Sweeping Removal .........         0.000         0.000         0.000         0.000         0.000
  Infiltration Loss ........       104.188         0.000         0.000         0.000         0.000
  BMP Removal ..............         0.000         0.000         0.000         0.000         0.000
  Surface Runoff ...........       359.312         0.000         0.000         0.000         0.000
  Remaining Buildup ........      2059.723         0.000         0.000         0.000         0.000
  Continuity Error (%) .....         0.038         0.000         0.000         0.000         0.000
  
  
  **************************        Volume        Volume
  Flow Routing Continuity        hectare-m      10^6 ltr
  **************************     ---------     ---------
  Dry Weather Inflow .......         0.000         0.000
  Wet Weather Inflow .......         0.234         2.341
  Groundwater Inflow .......         0.000         0.000
  RDII Inflow ..............         0.000         0.000
  External Inflow ..........         0.082         0.822
  External Outflow .........         0.261         2.614
  Flooding Loss ............         0.013         0.128
  Evaporation Loss .........         0.000         0.000
  Exfiltration Loss ........         0.000         0.000
  Initial Stored Volume ....         0.000         0.000
  Final Stored Volume ......         0.053         0.525
  Continuity Error (%) .....        -3.306
  
  
  **************************           COD         NH3-N            TN            TP            SS
  Quality Routing Continuity            kg            kg            kg            kg            kg
  **************************    ----------    ----------    ----------    ----------    ----------
  Dry Weather Inflow .......         0.000         0.000         0.000         0.000         0.000
  Wet Weather Inflow .......       358.809         0.000         0.000         0.000         0.000
  Groundwater Inflow .......         0.000         0.000         0.000         0.000         0.000
  RDII Inflow ..............         0.000         0.000         0.000         0.000         0.000
  External Inflow ..........       137.263         0.000         0.000         0.000         0.000
  External Outflow .........       385.374         0.000         0.000         0.000         0.000
  Flooding Loss ............        18.470         0.000         0.000         0.000         0.000
  Exfiltration Loss ........         0.000         0.000         0.000         0.000         0.000
  Mass Reacted .............         0.000         0.000         0.000         0.000         0.000
  Initial Stored Mass ......         0.000         0.000         0.000         0.000         0.000
  Final Stored Mass ........        69.770         0.000         0.000         0.000         0.000
  Continuity Error (%) .....         4.527         0.000         0.000         0.000         0.000
  
  
  *************************
  Highest Continuity Errors
  *************************
  Node WS02006230 (5.99%)
  Node WS02006229 (3.76%)
  Node WS02006242 (3.61%)
  Node WS02006240 (3.45%)
  Node WS02006243 (3.40%)
  
  
  ***************************
  Time-Step Critical Elements
  ***************************
  Link 8 (79.91%)
  Link 17 (11.70%)
  Link WSL2448 (7.13%)
  
  
  ********************************
  Highest Flow Instability Indexes
  ********************************
  Link WSL2302 (2)
  Link WSL2301 (2)
  Link WSL2297 (2)
  Link WSL2296 (1)
  Link WSL2298 (1)
  
  
  *************************
  Routing Time Step Summary
  *************************
  Minimum Time Step           :     0.41 sec
  Average Time Step           :     0.93 sec
  Maximum Time Step           :     5.00 sec
  Percent in Steady State     :     0.00
  Average Iterations per Step :     2.14
  Percent Not Converging      :     1.62
  
  
  ***************************
  Subcatchment Runoff Summary
  ***************************
  
  ------------------------------------------------------------------------------------------------------------------------------
                            Total      Total      Total      Total     Imperv       Perv      Total       Total     Peak  Runoff
                           Precip      Runon       Evap      Infil     Runoff     Runoff     Runoff      Runoff   Runoff   Coeff
  Subcatchment                 mm         mm         mm         mm         mm         mm         mm    10^6 ltr      MLD
  ------------------------------------------------------------------------------------------------------------------------------
  1                         16.73      19.36       0.00       9.56       8.62       8.53      17.15        0.21     2.65   0.475
  2                         16.73       0.00       0.00       7.66       4.00       1.55       5.55        0.19     3.39   0.332
  3                         16.73       0.00       0.00       7.71       3.96       1.31       5.27        0.27     4.83   0.315
  35                        16.73       0.00       0.00       7.65       4.01       1.62       5.63        0.17     3.09   0.337
  36                        16.73      11.12       0.00       9.25       6.48       3.30       9.77        0.58     8.38   0.351
  40                        16.73       2.96       0.00       8.13       4.67       2.04       6.71        0.26     4.41   0.341
  41                        16.73       0.00       0.00       7.58       4.05       1.92       5.97        0.12     2.10   0.357
  42                        16.73       0.00       0.00       7.61       4.04       1.80       5.84        0.13     2.42   0.349
  43                        16.73       0.00       0.00       7.25       4.13       3.32       7.45        0.03     0.49   0.445
  44                        16.73     162.46       0.00      14.85      43.89      96.10     139.99        0.52     7.11   0.781
  45                        16.73       0.00       0.00       7.48       4.09       2.40       6.49        0.07     1.21   0.388
  46                        16.73       9.33       0.00       8.83       6.22       4.28      10.50        0.22     3.30   0.403
  47                        16.73       0.00       0.00       7.49       4.09       2.34       6.43        0.07     1.29   0.384
  48                        16.73       4.51       0.00       8.18       5.13       3.30       8.43        0.13     2.15   0.397
  55                        16.73       6.74       0.00       8.29       5.71       4.88      10.59        0.09     1.35   0.451
  56                        16.73      10.26       0.00       8.93       6.44       4.54      10.98        0.24     3.38   0.407
  57                        16.73       0.00       0.00       7.71       3.96       1.32       5.28        0.26     4.75   0.316
  59                        16.73       0.00       0.00       7.44       4.10       2.57       6.67        0.06     1.01   0.399
  60                        16.73      14.65       0.00       8.93       7.66       9.05      16.70        0.09     1.24   0.532
  61                        16.73       0.00       0.00       7.82       3.75       0.76       4.51        0.81    13.87   0.270
  64                        16.73       0.00       0.00       7.50       4.08       2.28       6.36        0.08     1.38   0.380
  
  
  ****************************
  Subcatchment Washoff Summary
  ****************************
  
  ------------------------------------------------------------------------------------------
                                 COD         NH3-N            TN            TP            SS
  Subcatchment                    kg            kg            kg            kg            kg
  ------------------------------------------------------------------------------------------
  1                           33.135         0.000         0.000         0.000         0.000
  2                            0.000         0.000         0.000         0.000         0.000
  3                            0.000         0.000         0.000         0.000         0.000
  35                          26.671         0.000         0.000         0.000         0.000
  36                         167.329         0.000         0.000         0.000         0.000
  40                          51.547         0.000         0.000         0.000         0.000
  41                          18.814         0.000         0.000         0.000         0.000
  42                          21.349         0.000         0.000         0.000         0.000
  43                           5.058         0.000         0.000         0.000         0.000
  44                         157.084         0.000         0.000         0.000         0.000
  45                          11.478         0.000         0.000         0.000         0.000
  46                          64.420         0.000         0.000         0.000         0.000
  47                          12.167         0.000         0.000         0.000         0.000
  48                          30.801         0.000         0.000         0.000         0.000
  55                          23.352         0.000         0.000         0.000         0.000
  56                          69.961         0.000         0.000         0.000         0.000
  57                          39.472         0.000         0.000         0.000         0.000
  59                           9.792         0.000         0.000         0.000         0.000
  60                          26.499         0.000         0.000         0.000         0.000
  61                         106.269         0.000         0.000         0.000         0.000
  64                          12.930         0.000         0.000         0.000         0.000
  ------------------------------------------------------------------------------------------
  System                     888.128         0.000         0.000         0.000         0.000
  
  
  ******************
  Node Depth Summary
  ******************
  
  ---------------------------------------------------------------------------------
                                 Average  Maximum  Maximum  Time of Max    Reported
                                   Depth    Depth      HGL   Occurrence   Max Depth
  Node                 Type       Meters   Meters   Meters  days hr:min      Meters
  ---------------------------------------------------------------------------------
  WS01000070           JUNCTION     0.00     0.00     0.00     0  00:00        0.00
  WS01000323           JUNCTION     0.00     0.00     0.00     0  00:00        0.00
  WS01000533           JUNCTION     0.00     0.00     6.86     0  00:00        0.00
  WS01005172           JUNCTION     0.00     0.00     0.00     0  00:00        0.00
  WS01005181           JUNCTION     0.00     0.00     0.00     0  00:00        0.00
  WS01009841           JUNCTION     0.00     0.00     0.00     0  00:00        0.00
  WS02000078           JUNCTION     0.00     0.00     0.00     0  00:00        0.00
  WS02000112           JUNCTION     0.00     0.00     0.00     0  00:00        0.00
  WS02000136           JUNCTION     0.00     0.00     0.00     0  00:00        0.00
  WS02004053           JUNCTION     0.00     0.00     0.00     0  00:00        0.00
  WS02004401           JUNCTION     2.17     2.34     8.34     0  02:16        2.34
  WS02005192           JUNCTION     0.45     2.22    10.09     0  01:35        0.71
  WS02005193           JUNCTION     0.49     2.40    10.22     0  01:35        1.77
  WS02005196           JUNCTION     0.47     0.93     8.78     0  01:35        0.73
  WS02006109           JUNCTION     1.58     1.83     8.45     0  01:32        1.75
  WS02006110           JUNCTION     1.60     1.86     8.46     0  01:32        1.77
  WS02006111           JUNCTION     1.61     1.85     8.43     0  01:32        1.77
  WS02006112           JUNCTION     2.06     2.28     8.40     0  01:32        2.23
  WS02006113           JUNCTION     1.60     1.87     8.46     0  01:32        1.77
  WS02006115           JUNCTION     2.08     2.25     8.35     0  01:32        2.25
  WS02006116           JUNCTION     2.14     2.31     8.35     0  02:20        2.30
  WS02006183           JUNCTION     0.00     0.00     0.00     0  00:00        0.00
  WS02006228           JUNCTION     1.55     1.78     8.43     0  01:32        1.73
  WS02006229           JUNCTION     1.51     1.72     8.41     0  01:32        1.69
  WS02006230           JUNCTION     1.45     1.65     8.40     0  01:33        1.63
  WS02006231           JUNCTION     1.31     1.71     8.61     0  01:31        1.48
  WS02006232           JUNCTION     1.19     2.01     9.04     0  01:31        1.36
  WS02006234           JUNCTION     1.07     1.38     8.54     0  01:33        1.23
  WS02006235           JUNCTION     1.06     1.42     8.59     0  01:33        1.22
  WS02006238           JUNCTION     1.06     1.40     8.58     0  01:33        1.21
  WS02006239           JUNCTION     1.03     1.34     8.55     0  01:33        1.18
  WS02006242           JUNCTION     0.95     1.55     8.85     0  01:32        1.09
  WS02006240           JUNCTION     0.95     1.38     8.67     0  01:33        1.10
  WS02006243           JUNCTION     0.83     1.48     8.90     0  01:33        0.98
  WS02006245           JUNCTION     0.77     1.55     9.04     0  01:33        0.91
  WS02006247           JUNCTION     0.75     1.46     8.97     0  01:33        0.89
  WS02006248           JUNCTION     0.68     0.81     8.40     0  02:10        0.81
  WS02006249           JUNCTION     0.68     1.09     8.69     0  01:35        0.84
  WS02006251           JUNCTION     0.63     2.21     9.88     0  01:35        0.86
  WS02006253           JUNCTION     0.51     0.77     8.57     0  02:10        0.77
  WS02618401           JUNCTION     0.00     0.00     0.00     0  00:00        0.00
  WSA1649              JUNCTION     0.00     0.00     0.00     0  00:00        0.00
  outfall-5            OUTFALL      0.12     0.21     7.88     0  02:10        0.21
  outfall-14           OUTFALL      0.09     0.14     7.80     0  02:16        0.14
  outfall-16           OUTFALL      0.00     0.00     8.39     0  00:00        0.00
  CC-storage           STORAGE      2.44     5.63     8.81     0  01:56        5.63
  
  
  *******************
  Node Inflow Summary
  *******************
  
  -------------------------------------------------------------------------------------------------
                                  Maximum  Maximum                  Lateral       Total        Flow
                                  Lateral    Total  Time of Max      Inflow      Inflow     Balance
                                   Inflow   Inflow   Occurrence      Volume      Volume       Error
  Node                 Type           MLD      MLD  days hr:min    10^6 ltr    10^6 ltr     Percent
  -------------------------------------------------------------------------------------------------
  WS01000070           JUNCTION      0.00     0.00     0  00:00           0           0       0.000 ltr
  WS01000323           JUNCTION      0.00     0.00     0  00:00           0           0       0.000 ltr
  WS01000533           JUNCTION      0.00     0.00     0  00:00           0           0       0.000 ltr
  WS01005172           JUNCTION      0.00     0.00     0  00:00           0           0       0.000 ltr
  WS01005181           JUNCTION      0.00     0.00     0  00:00           0           0       0.000 ltr
  WS01009841           JUNCTION      0.00     0.00     0  00:00           0           0       0.000 ltr
  WS02000078           JUNCTION      0.00     0.00     0  00:00           0           0       0.000 ltr
  WS02000112           JUNCTION      0.00     0.00     0  00:00           0           0       0.000 ltr
  WS02000136           JUNCTION      0.00     0.00     0  00:00           0           0       0.000 ltr
  WS02004053           JUNCTION      0.00     0.00     0  00:00           0           0       0.000 ltr
  WS02004401           JUNCTION      0.05    20.53     0  02:16      0.0086        1.09       2.644
  WS02005192           JUNCTION      4.87    13.34     0  01:35       0.281       0.283       0.828
  WS02005193           JUNCTION      0.09    18.26     0  01:34       0.014       0.327       2.047
  WS02005196           JUNCTION      0.12    16.14     0  01:34      0.0183       0.307       2.018
  WS02006109           JUNCTION      0.08    15.58     0  02:18      0.0129       0.859       2.884
  WS02006110           JUNCTION      0.08    15.66     0  02:18      0.0126       0.848       2.943
  WS02006111           JUNCTION      0.24    20.03     0  02:16      0.0352        1.13       1.826
  WS02006112           JUNCTION      0.18    20.19     0  02:16      0.0263        1.14       2.868
  WS02006113           JUNCTION      5.00    19.82     0  02:16       0.294        1.12       2.133
  WS02006115           JUNCTION      0.08    20.27     0  02:16      0.0129        1.12       3.365
  WS02006116           JUNCTION      0.24    20.47     0  02:16      0.0347        1.13       3.027
  WS02006183           JUNCTION      0.00     0.00     0  00:00           0           0       0.000 ltr
  WS02006228           JUNCTION      7.27    15.53     0  01:30       0.544       0.901       1.998
  WS02006229           JUNCTION      0.13    16.58     0  01:30      0.0193       0.414       3.903
  WS02006230           JUNCTION      0.07    18.54     0  01:30      0.0111       0.426       6.371
  WS02006231           JUNCTION      0.13    22.36     0  01:30      0.0197       0.435       3.280
  WS02006232           JUNCTION      3.47    28.84     0  01:31         0.2       0.531       2.800
  WS02006234           JUNCTION      0.14    28.65     0  01:31      0.0208        0.45       3.204
  WS02006235           JUNCTION      0.14    28.42     0  01:31      0.0215        0.45       1.668
  WS02006238           JUNCTION      0.15    30.63     0  01:31      0.0226       0.453       2.046
  WS02006239           JUNCTION      0.11    34.74     0  01:31      0.0167        0.46       3.419
  WS02006242           JUNCTION      0.08    38.45     0  01:32      0.0124       0.485       3.749
  WS02006240           JUNCTION      0.06    35.29     0  01:31     0.00952       0.468       3.573
  WS02006243           JUNCTION      0.17    35.68     0  01:31      0.0259       0.504       3.523
  WS02006245           JUNCTION      0.07    35.66     0  01:31      0.0109       0.504       2.579
  WS02006247           JUNCTION      2.79    35.78     0  01:31       0.231       0.659       1.661
  WS02006248           JUNCTION      0.12    41.57     0  02:10      0.0185         1.8       0.574
  WS02006249           JUNCTION      0.19    41.04     0  02:10      0.0275        1.45       0.980
  WS02006251           JUNCTION      1.41    40.85     0  02:10      0.0972        1.43       0.962
  WS02006253           JUNCTION      0.11    39.36     0  02:10      0.0166        1.36       0.503
  WS02618401           JUNCTION      0.00     0.00     0  00:00           0           0       0.000 ltr
  WSA1649              JUNCTION      0.00     0.00     0  00:00           0           0       0.000 ltr
  outfall-5            OUTFALL       0.00    41.63     0  02:10           0        1.55       0.000
  outfall-14           OUTFALL       0.00    20.53     0  02:16           0        1.06       0.000
  outfall-16           OUTFALL       0.00     0.00     0  00:00           0           0       0.000 ltr
  CC-storage           STORAGE      15.78    15.78     0  02:00        1.09        1.09     -10.848
  
  
  **********************
  Node Surcharge Summary
  **********************
  
  Surcharging occurs when water rises above the top of the highest conduit.
  ---------------------------------------------------------------------
                                               Max. Height   Min. Depth
                                   Hours       Above Crown    Below Rim
  Node                 Type      Surcharged         Meters       Meters
  ---------------------------------------------------------------------
  WS01000070           JUNCTION        3.83          0.000        0.000
  WS01000323           JUNCTION        3.83          0.000        0.000
  WS01000533           JUNCTION        3.83          0.000        2.147
  WS01005172           JUNCTION        3.83          0.000        0.000
  WS01005181           JUNCTION        3.83          0.000        0.000
  WS01009841           JUNCTION        3.83          0.000        0.000
  WS02000078           JUNCTION        3.83          0.000        0.000
  WS02000112           JUNCTION        3.83          0.000        0.000
  WS02000136           JUNCTION        3.83          0.000        0.000
  WS02004053           JUNCTION        3.83          0.000        0.000
  WS02005192           JUNCTION        0.32          1.623        1.196
  WS02005193           JUNCTION        0.43          1.804        0.813
  WS02005196           JUNCTION        0.35          0.330        2.376
  WS02006109           JUNCTION        2.33          1.031        0.807
  WS02006110           JUNCTION        2.33          1.061        0.784
  WS02006111           JUNCTION        2.33          1.051        0.826
  WS02006112           JUNCTION        2.45          1.280        0.403
  WS02006113           JUNCTION        2.33          1.065        0.868
  WS02006115           JUNCTION        2.47          1.252        1.047
  WS02006116           JUNCTION        2.55          1.305        1.045
  WS02006183           JUNCTION        3.83          0.000        0.000
  WS02006228           JUNCTION        2.33          0.979        1.252
  WS02006229           JUNCTION        2.33          0.923        1.531
  WS02006231           JUNCTION        2.32          1.013        0.530
  WS02006232           JUNCTION        2.31          1.315        0.174
  WS02006234           JUNCTION        2.31          0.682        0.575
  WS02006235           JUNCTION        2.31          0.716        0.578
  WS02006238           JUNCTION        2.30          0.701        0.733
  WS02006239           JUNCTION        2.30          0.637        0.692
  WS02006242           JUNCTION        2.30          0.849        0.000
  WS02006240           JUNCTION        2.30          0.676        0.727
  WS02006243           JUNCTION        2.29          0.780        0.000
  WS02006245           JUNCTION        2.28          0.855        0.000
  WS02006247           JUNCTION        2.27          0.760        0.000
  WS02006249           JUNCTION        1.13          0.388        0.000
  WS02006251           JUNCTION        0.55          1.510        0.000
  WS02006253           JUNCTION        0.28          0.074        2.380
  WS02618401           JUNCTION        3.83          0.000        0.000
  WSA1649              JUNCTION        3.83          0.000        0.000
  
  
  *********************
  Node Flooding Summary
  *********************
  
  Flooding refers to all water that overflows a node, whether it ponds or not.
  --------------------------------------------------------------------------
                                                             Total   Maximum
                                 Maximum   Time of Max       Flood    Ponded
                        Hours       Rate    Occurrence      Volume     Depth
  Node                 Flooded       MLD   days hr:min    10^6 ltr    Meters
  --------------------------------------------------------------------------
  WS02006242              0.01     20.06      0  01:32       0.001     0.000
  WS02006243              0.01      2.51      0  01:33       0.000     0.000
  WS02006245              0.01      3.10      0  01:33       0.000     0.000
  WS02006247              0.01      9.77      0  01:33       0.000     0.000
  WS02006249              0.01      6.26      0  01:35       0.000     0.000
  WS02006251              0.01     15.73      0  01:35       0.000     0.000
  CC-storage              0.32     15.78      0  02:00       0.127     0.000
  
  
  **********************
  Storage Volume Summary
  **********************
  
  --------------------------------------------------------------------------------------------------
                         Average     Avg  Evap Exfil       Maximum     Max    Time of Max    Maximum
                          Volume    Pcnt  Pcnt  Pcnt        Volume    Pcnt     Occurrence    Outflow
  Storage Unit           1000 m3    Full  Loss  Loss       1000 m3    Full    days hr:min        MLD
  --------------------------------------------------------------------------------------------------
  CC-storage               0.069      43     0     0         0.159     100       0  01:56      34.56
  
  
  ***********************
  Outfall Loading Summary
  ***********************
  
  ---------------------------------------------------------------------------------------------------------------------------------
                         Flow       Avg       Max       Total         Total         Total         Total         Total         Total
                         Freq      Flow      Flow      Volume           COD         NH3-N            TN            TP            SS
  Outfall Node           Pcnt       MLD       MLD    10^6 ltr            kg            kg            kg            kg            kg
  ---------------------------------------------------------------------------------------------------------------------------------
  outfall-5             91.32     17.72     41.63       1.554       207.393         0.000         0.000         0.000         0.000
  outfall-14            91.67     11.66     20.53       1.060       177.992         0.000         0.000         0.000         0.000
  outfall-16             0.00      0.00      0.00       0.000         0.000         0.000         0.000         0.000         0.000
  ---------------------------------------------------------------------------------------------------------------------------------
  System                61.00     29.38     60.26       2.614       385.385         0.000         0.000         0.000         0.000
  
  
  ********************
  Link Flow Summary
  ********************
  
  -----------------------------------------------------------------------------
                                 Maximum  Time of Max   Maximum    Max/    Max/
                                  |Flow|   Occurrence   |Veloc|    Full    Full
  Link                 Type          MLD  days hr:min     m/sec    Flow   Depth
  -----------------------------------------------------------------------------
  WSL2038              CONDUIT     11.05     0  01:35      0.59    0.55    1.00
  WSL2039              CONDUIT     18.17     0  01:34      0.96    0.93    1.00
  WSL2041              CONDUIT     16.02     0  01:34      0.89    0.79    1.00
  WSL2294              CONDUIT     15.58     0  02:18      0.43    0.52    1.00
  WSL2295              CONDUIT     15.66     0  02:18      0.50    0.70    1.00
  WSL2296              CONDUIT     20.03     0  02:16      0.63    0.11    1.00
  WSL2297              CONDUIT     20.19     0  02:16      0.34    0.39    1.00
  WSL2298              CONDUIT     19.82     0  02:16      0.87    0.91    1.00
  WSL2301              CONDUIT     20.27     0  02:16      0.30    0.19    1.00
  WSL2302              CONDUIT     20.47     0  02:16      0.30    0.25    1.00
  WSL2441              CONDUIT     15.50     0  02:18      0.44    0.40    1.00
  WSL2442              CONDUIT     16.45     0  01:30      0.63    0.42    1.00
  WSL2443              CONDUIT     18.47     0  01:30      0.73    0.29    1.00
  WSL2444              CONDUIT     22.23     0  01:30      0.94    0.35    1.00
  WSL2446              CONDUIT     27.43     0  01:31      1.35    0.47    1.00
  WSL2447              CONDUIT     28.51     0  01:31      1.43    1.47    1.00
  WSL2448              CONDUIT     28.27     0  01:31      1.32    0.79    1.00
  WSL2449              CONDUIT     30.16     0  01:31      1.27    1.05    1.00
  WSL2450              CONDUIT     34.20     0  01:31      1.32    0.71    1.00
  WSL2451              CONDUIT     35.23     0  01:31      1.32    2.30    1.00
  WSL2452              CONDUIT     38.37     0  01:32      1.34    0.73    1.00
  WSL2454              CONDUIT     35.51     0  01:31      1.47    0.83    1.00
  WSL2478              CONDUIT     35.59     0  01:31      1.42    1.26    1.00
  WSL2479              CONDUIT     34.81     0  01:31      1.41    0.66    1.00
  WSL2480              CONDUIT     41.05     0  02:10      1.42    1.90    1.00
  WSL2482              CONDUIT     40.88     0  02:10      1.36    1.06    1.00
  WSL2484              CONDUIT     39.51     0  02:10      1.51    0.56    1.00
  WSL2493              CONDUIT     14.51     0  01:30      0.51    0.24    1.00
  8                    CONDUIT     41.63     0  02:10      7.14    0.55    0.53
  19                   CONDUIT      0.00     0  00:00      0.00    0.00    0.00
  17                   CONDUIT     20.53     0  02:16      6.00    0.27    0.35
  CC-Pump-1            PUMP        17.28     0  02:10              1.00
  CC-Pump-2            PUMP        17.28     0  02:10              1.00
  
  
  ***************************
  Flow Classification Summary
  ***************************
  
  -------------------------------------------------------------------------------------
                      Adjusted    ---------- Fraction of Time in Flow Class ---------- 
                       /Actual         Up    Down  Sub   Sup   Up    Down  Norm  Inlet 
  Conduit               Length    Dry  Dry   Dry   Crit  Crit  Crit  Crit  Ltd   Ctrl  
  -------------------------------------------------------------------------------------
  WSL2038                 1.00   0.00  0.00  0.00  1.00  0.00  0.00  0.00  0.01  0.00
  WSL2039                 1.00   0.00  0.00  0.00  1.00  0.00  0.00  0.00  0.00  0.00
  WSL2041                 1.00   0.00  0.00  0.00  1.00  0.00  0.00  0.00  0.30  0.00
  WSL2294                 1.00   0.00  0.00  0.00  1.00  0.00  0.00  0.00  0.00  0.00
  WSL2295                 1.00   0.00  0.00  0.00  1.00  0.00  0.00  0.00  0.00  0.00
  WSL2296                 1.00   0.00  0.00  0.00  1.00  0.00  0.00  0.00  0.17  0.00
  WSL2297                 1.00   0.00  0.00  0.00  1.00  0.00  0.00  0.00  0.00  0.00
  WSL2298                 1.00   0.00  0.00  0.00  0.98  0.02  0.00  0.00  0.00  0.00
  WSL2301                 1.00   0.00  0.00  0.00  1.00  0.00  0.00  0.00  0.04  0.00
  WSL2302                 1.00   0.00  0.00  0.00  1.00  0.00  0.00  0.00  0.01  0.00
  WSL2441                 1.00   0.00  0.00  0.00  1.00  0.00  0.00  0.00  0.00  0.00
  WSL2442                 1.00   0.00  0.00  0.00  1.00  0.00  0.00  0.00  0.17  0.00
  WSL2443                 1.00   0.00  0.00  0.00  1.00  0.00  0.00  0.00  0.31  0.00
  WSL2444                 1.00   0.00  0.00  0.00  0.94  0.06  0.00  0.00  0.23  0.00
  WSL2446                 1.00   0.00  0.00  0.00  0.95  0.05  0.00  0.00  0.00  0.00
  WSL2447                 1.00   0.00  0.00  0.00  1.00  0.00  0.00  0.00  0.00  0.00
  WSL2448                 1.00   0.00  0.00  0.00  1.00  0.00  0.00  0.00  0.00  0.00
  WSL2449                 1.00   0.00  0.00  0.00  1.00  0.00  0.00  0.00  0.02  0.00
  WSL2450                 1.00   0.00  0.00  0.00  1.00  0.00  0.00  0.00  0.36  0.00
  WSL2451                 1.00   0.00  0.00  0.00  1.00  0.00  0.00  0.00  0.00  0.00
  WSL2452                 1.00   0.00  0.00  0.00  1.00  0.00  0.00  0.00  0.35  0.00
  WSL2454                 1.00   0.00  0.00  0.00  1.00  0.00  0.00  0.00  0.01  0.00
  WSL2478                 1.00   0.00  0.00  0.00  1.00  0.00  0.00  0.00  0.00  0.00
  WSL2479                 1.00   0.00  0.00  0.00  1.00  0.00  0.00  0.00  0.36  0.00
  WSL2480                 1.00   0.00  0.00  0.00  1.00  0.00  0.00  0.00  0.00  0.00
  WSL2482                 1.00   0.00  0.00  0.00  1.00  0.00  0.00  0.00  0.35  0.00
  WSL2484                 1.00   0.00  0.00  0.00  1.00  0.00  0.00  0.00  0.34  0.00
  WSL2493                 1.00   0.00  0.00  0.00  1.00  0.00  0.00  0.00  0.05  0.00
  8                       1.00   0.09  0.00  0.00  0.00  0.91  0.00  0.00  0.11  0.00
  19                      1.00   1.00  0.00  0.00  0.00  0.00  0.00  0.00  0.00  0.00
  17                      1.00   0.08  0.00  0.00  0.00  0.92  0.00  0.00  0.06  0.00
  
  
  *************************
  Conduit Surcharge Summary
  *************************
  
  ----------------------------------------------------------------------------
                                                           Hours        Hours 
                         --------- Hours Full --------   Above Full   Capacity
  Conduit                Both Ends  Upstream  Dnstream   Normal Flow   Limited
  ----------------------------------------------------------------------------
  WSL2038                     0.32      0.32      0.35      0.01         0.01
  WSL2039                     0.43      0.43      0.49      0.01         0.01
  WSL2041                     0.35      0.35      0.43      0.01         0.01
  WSL2294                     2.33      2.33      2.33      0.01         0.01
  WSL2295                     2.33      2.33      2.33      0.01         0.03
  WSL2296                     2.33      2.33      2.74      0.01         0.01
  WSL2297                     2.45      2.45      2.47      0.01         0.01
  WSL2298                     2.33      2.33      2.33      0.01         0.03
  WSL2301                     2.47      2.47      2.55      0.01         0.01
  WSL2302                     2.55      2.55      2.60      0.01         0.01
  WSL2441                     2.33      2.33      2.33      0.01         0.01
  WSL2442                     2.33      2.33      2.33      0.01         0.01
  WSL2443                     2.32      2.32      2.33      0.01         0.01
  WSL2444                     2.31      2.31      2.32      0.01         0.01
  WSL2446                     2.31      2.31      2.31      0.01         0.01
  WSL2447                     2.31      2.31      2.31      0.03         0.01
  WSL2448                     2.30      2.30      2.31      0.01         0.01
  WSL2449                     2.30      2.30      2.30      0.01         0.01
  WSL2450                     2.30      2.30      2.30      0.01         0.01
  WSL2451                     2.30      2.30      2.30      0.08         0.01
  WSL2452                     2.29      2.29      2.30      0.01         0.01
  WSL2454                     2.28      2.28      2.29      0.01         0.01
  WSL2478                     2.26      2.27      2.28      0.06         0.01
  WSL2479                     1.70      1.70      2.27      0.01         0.01
  WSL2480                     1.13      1.13      1.70      0.62         0.56
  WSL2482                     0.55      0.55      1.13      0.16         0.18
  WSL2484                     0.28      0.28      0.55      0.01         0.01
  WSL2493                     2.33      2.33      2.33      0.01         0.01
  
  
  ***************
  Pumping Summary
  ***************
  
  ---------------------------------------------------------------------------------------------------------
                                                  Min       Avg       Max     Total     Power    % Time Off
                        Percent   Number of      Flow      Flow      Flow    Volume     Usage    Pump Curve
  Pump                 Utilized   Start-Ups       MLD       MLD       MLD  10^6 ltr     Kw-hr    Low   High
  ---------------------------------------------------------------------------------------------------------
  CC-Pump-1               34.76           3      0.00      9.71     17.28     0.514      4.45    0.0    0.0
  CC-Pump-2               34.76           3      0.00      9.71     17.28     0.514      4.45    0.0    0.0
  
  
  ***************************
  Link Pollutant Load Summary
  ***************************
  
  ------------------------------------------------------------------------------------------
                                 COD         NH3-N            TN            TP            SS
  Link                            kg            kg            kg            kg            kg
  ------------------------------------------------------------------------------------------
  WSL2038                     42.724         0.000         0.000         0.000         0.000
  WSL2039                     47.828         0.000         0.000         0.000         0.000
  WSL2041                     45.887         0.000         0.000         0.000         0.000
  WSL2294                    186.364         0.000         0.000         0.000         0.000
  WSL2295                    183.339         0.000         0.000         0.000         0.000
  WSL2296                    187.251         0.000         0.000         0.000         0.000
  WSL2297                    186.099         0.000         0.000         0.000         0.000
  WSL2298                    183.691         0.000         0.000         0.000         0.000
  WSL2301                    183.678         0.000         0.000         0.000         0.000
  WSL2302                    183.239         0.000         0.000         0.000         0.000
  WSL2441                    189.413         0.000         0.000         0.000         0.000
  WSL2442                     42.620         0.000         0.000         0.000         0.000
  WSL2443                     40.348         0.000         0.000         0.000         0.000
  WSL2444                     37.327         0.000         0.000         0.000         0.000
  WSL2446                     40.234         0.000         0.000         0.000         0.000
  WSL2447                     45.835         0.000         0.000         0.000         0.000
  WSL2448                     48.076         0.000         0.000         0.000         0.000
  WSL2449                     51.083         0.000         0.000         0.000         0.000
  WSL2450                     55.944         0.000         0.000         0.000         0.000
  WSL2451                     60.931         0.000         0.000         0.000         0.000
  WSL2452                     65.898         0.000         0.000         0.000         0.000
  WSL2454                     69.429         0.000         0.000         0.000         0.000
  WSL2478                     72.577         0.000         0.000         0.000         0.000
  WSL2479                     84.820         0.000         0.000         0.000         0.000
  WSL2480                    187.707         0.000         0.000         0.000         0.000
  WSL2482                    183.943         0.000         0.000         0.000         0.000
  WSL2484                    159.858         0.000         0.000         0.000         0.000
  WSL2493                     48.914         0.000         0.000         0.000         0.000
  8                          207.393         0.000         0.000         0.000         0.000
  19                           0.000         0.000         0.000         0.000         0.000
  17                         177.992         0.000         0.000         0.000         0.000
  CC-Pump-1                   55.127         0.000         0.000         0.000         0.000
  CC-Pump-2                   55.127         0.000         0.000         0.000         0.000
  

  Analysis begun on:  Tue Dec 17 09:48:53 2019
  Analysis ended on:  Tue Dec 17 09:48:53 2019
  Total elapsed time: < 1 sec