
  EPA STORM WATER MANAGEMENT MODEL - VERSION 5.1 (Build 5.1.013)
  --------------------------------------------------------------

  
  *********************************************************
  NOTE: The summary statistics displayed in this report are
  based on results found at every computational time step,  
  not just on results from each reporting time step.
  *********************************************************
  
  ****************
  Analysis Options
  ****************
  Flow Units ............... MLD
  Process Models:
    Rainfall/Runoff ........ YES
    RDII ................... NO
    Snowmelt ............... NO
    Groundwater ............ NO
    Flow Routing ........... YES
    Ponding Allowed ........ NO
    Water Quality .......... YES
  Infiltration Method ...... GREEN_AMPT
  Flow Routing Method ...... DYNWAVE
  Surcharge Method ......... EXTRAN
  Starting Date ............ 08/28/2015 08:00:00
  Ending Date .............. 08/28/2015 11:50:00
  Antecedent Dry Days ...... 4.0
  Report Time Step ......... 00:01:00
  Wet Time Step ............ 00:01:00
  Dry Time Step ............ 00:01:00
  Routing Time Step ........ 5.00 sec
  Variable Time Step ....... YES
  Maximum Trials ........... 8
  Number of Threads ........ 1
  Head Tolerance ........... 0.001500 m
  
  
  **************************        Volume         Depth
  Runoff Quantity Continuity     hectare-m            mm
  **************************     ---------       -------
  Total Precipitation ......         1.051         3.725
  Evaporation Loss .........         0.000         0.000
  Infiltration Loss ........         0.627         2.222
  Surface Runoff ...........         0.133         0.470
  Final Storage ............         0.292         1.034
  Continuity Error (%) .....        -0.039
  
  
  **************************           COD         NH3-N            TN            TP            SS
  Runoff Quality Continuity             kg            kg            kg            kg            kg
  **************************    ----------    ----------    ----------    ----------    ----------
  Initial Buildup ..........     13074.240         0.000         0.000         0.000         0.000
  Surface Buildup ..........       136.148         0.000         0.000         0.000         0.000
  Wet Deposition ...........         0.000         0.000         0.000         0.000         0.000
  Sweeping Removal .........         0.000         0.000         0.000         0.000         0.000
  Infiltration Loss ........         9.392         0.000         0.000         0.000         0.000
  BMP Removal ..............         0.000         0.000         0.000         0.000         0.000
  Surface Runoff ...........        36.179         0.000         0.000         0.000         0.000
  Remaining Buildup ........     13164.774         0.000         0.000         0.000         0.000
  Continuity Error (%) .....         0.000         0.000         0.000         0.000         0.000
  
  
  **************************        Volume        Volume
  Flow Routing Continuity        hectare-m      10^6 ltr
  **************************     ---------     ---------
  Dry Weather Inflow .......         0.000         0.000
  Wet Weather Inflow .......         0.132         1.321
  Groundwater Inflow .......         0.000         0.000
  RDII Inflow ..............         0.000         0.000
  External Inflow ..........         0.540         5.403
  External Outflow .........         0.581         5.807
  Flooding Loss ............         0.015         0.154
  Evaporation Loss .........         0.000         0.000
  Exfiltration Loss ........         0.000         0.000
  Initial Stored Volume ....         0.000         0.000
  Final Stored Volume ......         0.078         0.780
  Continuity Error (%) .....        -0.273
  
  
  **************************           COD         NH3-N            TN            TP            SS
  Quality Routing Continuity            kg            kg            kg            kg            kg
  **************************    ----------    ----------    ----------    ----------    ----------
  Dry Weather Inflow .......         0.000         0.000         0.000         0.000         0.000
  Wet Weather Inflow .......        36.055         0.000         0.000         0.000         0.000
  Groundwater Inflow .......         0.000         0.000         0.000         0.000         0.000
  RDII Inflow ..............         0.000         0.000         0.000         0.000         0.000
  External Inflow ..........       902.284         0.000         0.000         0.000         0.000
  External Outflow .........       836.981         0.000         0.000         0.000         0.000
  Flooding Loss ............        17.697         0.000         0.000         0.000         0.000
  Exfiltration Loss ........         0.000         0.000         0.000         0.000         0.000
  Mass Reacted .............         0.000         0.000         0.000         0.000         0.000
  Initial Stored Mass ......         0.000         0.000         0.000         0.000         0.000
  Final Stored Mass ........        88.733         0.000         0.000         0.000         0.000
  Continuity Error (%) .....        -0.541         0.000         0.000         0.000         0.000
  
  
  *************************
  Highest Continuity Errors
  *************************
  Node WS02003099 (2.13%)
  Node WS02003094 (1.87%)
  Node WS02003102 (1.05%)
  
  
  ***************************
  Time-Step Critical Elements
  ***************************
  Link WSL2448 (45.54%)
  Link WSL1477 (28.67%)
  Link WSL1516 (16.27%)
  Link WSL2867 (4.91%)
  
  
  ********************************
  Highest Flow Instability Indexes
  ********************************
  Link WSL1477 (78)
  Link WSL1516 (77)
  Link WSL175 (56)
  Link XRpipe (56)
  Link WSL348 (54)
  
  
  *************************
  Routing Time Step Summary
  *************************
  Minimum Time Step           :     1.35 sec
  Average Time Step           :     3.77 sec
  Maximum Time Step           :     5.00 sec
  Percent in Steady State     :     0.00
  Average Iterations per Step :     4.78
  Percent Not Converging      :    28.80
  
  
  ***************************
  Subcatchment Runoff Summary
  ***************************
  
  ------------------------------------------------------------------------------------------------------------------------------
                            Total      Total      Total      Total     Imperv       Perv      Total       Total     Peak  Runoff
                           Precip      Runon       Evap      Infil     Runoff     Runoff     Runoff      Runoff   Runoff   Coeff
  Subcatchment                 mm         mm         mm         mm         mm         mm         mm    10^6 ltr      MLD
  ------------------------------------------------------------------------------------------------------------------------------
  1                          3.73       1.91       0.00       4.21       1.27       0.01       1.28        0.02     0.29   0.228
  2                          3.73       0.00       0.00       2.79       0.79       0.00       0.79        0.03     0.48   0.212
  3                          3.73       0.00       0.00       2.79       0.76       0.00       0.76        0.04     0.70   0.203
  4                          3.73       0.00       0.00       2.79       0.80       0.00       0.80        0.02     0.38   0.216
  5                          3.73       1.96       0.00       4.25       1.26       0.01       1.27        0.02     0.40   0.223
  6                          3.73       0.00       0.00       2.79       0.76       0.00       0.76        0.04     0.68   0.204
  7                          3.73       0.00       0.00       1.60       0.47       0.00       0.47        0.75    13.05   0.126
  8                          3.73       0.00       0.00       2.79       0.77       0.00       0.77        0.03     0.59   0.207
  9                          3.73       0.76       0.00       3.36       0.94       0.00       0.94        0.04     0.64   0.209
  17                         3.73       0.00       0.00       2.79       0.78       0.00       0.78        0.03     0.52   0.210
  18                         3.73       0.00       0.00       2.79       0.77       0.00       0.77        0.03     0.60   0.207
  28                         3.73       1.79       0.00       4.13       1.19       0.01       1.20        0.03     0.58   0.217
  29                         3.73       0.61       0.00       3.25       0.94       0.00       0.94        0.02     0.41   0.217
  30                         3.73       2.99       0.00       4.62       1.53       0.06       1.60        0.01     0.28   0.238
  31                         3.73       0.00       0.00       2.79       0.78       0.00       0.78        0.03     0.50   0.211
  33                         3.73       0.00       0.00       2.79       0.86       0.00       0.86        0.01     0.13   0.231
  34                         3.73       1.65       0.00       4.03       1.18       0.01       1.19        0.02     0.45   0.221
  35                         3.73       0.00       0.00       2.79       0.80       0.00       0.80        0.02     0.43   0.214
  36                         3.73       1.36       0.00       3.81       1.02       0.00       1.02        0.06     1.11   0.201
  39                         3.73       0.00       0.00       2.79       0.79       0.00       0.79        0.03     0.48   0.211
  40                         3.73       0.41       0.00       3.10       0.86       0.00       0.86        0.03     0.61   0.209
  41                         3.73       0.00       0.00       2.79       0.82       0.00       0.82        0.02     0.29   0.221
  42                         3.73       0.00       0.00       2.79       0.81       0.00       0.81        0.02     0.33   0.218
  43                         3.73       0.00       0.00       2.79       0.89       0.00       0.89        0.00     0.06   0.238
  44                         3.73      17.14       0.00       6.73       4.94       3.60       8.54        0.03     0.58   0.409
  45                         3.73       0.00       0.00       2.79       0.85       0.00       0.85        0.01     0.16   0.229
  46                         3.73       1.12       0.00       3.63       1.06       0.00       1.07        0.02     0.41   0.220
  47                         3.73       0.00       0.00       2.79       0.85       0.00       0.85        0.01     0.17   0.228
  48                         3.73       0.60       0.00       3.24       0.97       0.00       0.97        0.02     0.27   0.224
  55                         3.73       0.87       0.00       3.44       1.06       0.00       1.06        0.01     0.16   0.231
  56                         3.73       1.19       0.00       3.69       1.08       0.00       1.08        0.02     0.42   0.220
  57                         3.73       0.00       0.00       2.79       0.76       0.00       0.76        0.04     0.69   0.204
  59                         3.73       0.00       0.00       2.79       0.86       0.00       0.86        0.01     0.13   0.231
  60                         3.73       1.95       0.00       4.23       1.33       0.02       1.35        0.01     0.13   0.239
  61                         3.73       0.00       0.00       2.79       0.64       0.00       0.64        0.11     2.09   0.171
  62                         3.73       0.00       0.00       2.79       0.63       0.00       0.63        0.12     2.18   0.170
  64                         3.73       0.00       0.00       2.79       0.85       0.00       0.85        0.01     0.18   0.227
  
  
  ****************************
  Subcatchment Washoff Summary
  ****************************
  
  ------------------------------------------------------------------------------------------
                                 COD         NH3-N            TN            TP            SS
  Subcatchment                    kg            kg            kg            kg            kg
  ------------------------------------------------------------------------------------------
  1                            0.270         0.000         0.000         0.000         0.000
  2                            0.000         0.000         0.000         0.000         0.000
  3                            0.000         0.000         0.000         0.000         0.000
  4                            0.587         0.000         0.000         0.000         0.000
  5                            1.134         0.000         0.000         0.000         0.000
  6                            0.985         0.000         0.000         0.000         0.000
  7                           14.277         0.000         0.000         0.000         0.000
  8                            0.869         0.000         0.000         0.000         0.000
  9                            1.342         0.000         0.000         0.000         0.000
  17                           0.771         0.000         0.000         0.000         0.000
  18                           0.886         0.000         0.000         0.000         0.000
  28                           1.806         0.000         0.000         0.000         0.000
  29                           1.000         0.000         0.000         0.000         0.000
  30                           0.965         0.000         0.000         0.000         0.000
  31                           0.750         0.000         0.000         0.000         0.000
  33                           0.219         0.000         0.000         0.000         0.000
  34                           1.216         0.000         0.000         0.000         0.000
  35                           0.656         0.000         0.000         0.000         0.000
  36                           2.816         0.000         0.000         0.000         0.000
  39                           0.725         0.000         0.000         0.000         0.000
  40                           1.124         0.000         0.000         0.000         0.000
  41                           0.447         0.000         0.000         0.000         0.000
  42                           0.515         0.000         0.000         0.000         0.000
  43                           0.097         0.000         0.000         0.000         0.000
  44                           8.221         0.000         0.000         0.000         0.000
  45                           0.255         0.000         0.000         0.000         0.000
  46                           1.037         0.000         0.000         0.000         0.000
  47                           0.272         0.000         0.000         0.000         0.000
  48                           0.575         0.000         0.000         0.000         0.000
  55                           0.372         0.000         0.000         0.000         0.000
  56                           1.077         0.000         0.000         0.000         0.000
  57                           0.994         0.000         0.000         0.000         0.000
  59                           0.212         0.000         0.000         0.000         0.000
  60                           0.391         0.000         0.000         0.000         0.000
  61                           2.612         0.000         0.000         0.000         0.000
  62                           2.710         0.000         0.000         0.000         0.000
  64                           0.292         0.000         0.000         0.000         0.000
  ------------------------------------------------------------------------------------------
  System                      52.475         0.000         0.000         0.000         0.000
  
  
  ******************
  Node Depth Summary
  ******************
  
  ---------------------------------------------------------------------------------
                                 Average  Maximum  Maximum  Time of Max    Reported
                                   Depth    Depth      HGL   Occurrence   Max Depth
  Node                 Type       Meters   Meters   Meters  days hr:min      Meters
  ---------------------------------------------------------------------------------
  WS01000070           JUNCTION     0.00     0.00     0.00     0  00:00        0.00
  WS01000323           JUNCTION     0.00     0.00     0.00     0  00:00        0.00
  WS01000533           JUNCTION     0.00     0.00     6.86     0  00:00        0.00
  WS01005172           JUNCTION     0.00     0.00     0.00     0  00:00        0.00
  WS01005181           JUNCTION     0.00     0.00     0.00     0  00:00        0.00
  WS01009841           JUNCTION     0.00     0.00     0.00     0  00:00        0.00
  WS02000078           JUNCTION     0.00     0.00     0.00     0  00:00        0.00
  WS02000112           JUNCTION     0.00     0.00     0.00     0  00:00        0.00
  WS02000136           JUNCTION     0.00     0.00     0.00     0  00:00        0.00
  WS02001211           JUNCTION     0.38     0.44     5.28     0  02:58        0.44
  WS02001212           JUNCTION     0.31     0.36     5.16     0  02:59        0.36
  WS02001213           JUNCTION     0.40     0.45     5.15     0  02:59        0.45
  WS02003059           JUNCTION     0.34     0.41     5.06     0  03:15        0.41
  WS02003060           JUNCTION     0.36     0.46     5.01     0  03:14        0.46
  WS02003066           JUNCTION     0.11     0.20     5.50     0  03:13        0.18
  WS02003067           JUNCTION     0.17     0.31     5.63     0  03:13        0.31
  WS02003071           JUNCTION     0.41     0.52     4.92     0  03:15        0.52
  WS02003072           JUNCTION     0.33     0.43     4.80     0  03:15        0.42
  WS02003073           JUNCTION     0.38     0.48     4.72     0  03:18        0.48
  WS02003076           JUNCTION     0.34     0.44     4.67     0  03:19        0.44
  WS02003077           JUNCTION     0.04     0.05     5.06     0  03:03        0.05
  WS02003078           JUNCTION     0.02     0.03     6.93     0  03:02        0.03
  WS02003079           JUNCTION     0.06     0.09     7.00     0  03:02        0.09
  WS02003093           JUNCTION     0.01     0.01     7.35     0  01:46        0.01
  WS02003094           JUNCTION     0.06     0.09     7.31     0  03:01        0.09
  WS02003098           JUNCTION     0.03     0.05     7.22     0  03:02        0.05
  WS02003099           JUNCTION     0.07     0.10     7.14     0  03:04        0.10
  WS02003102           JUNCTION     0.06     0.09     7.12     0  03:01        0.09
  WS02003103           JUNCTION     0.07     0.11     7.08     0  03:02        0.11
  WS02003104           JUNCTION     0.07     0.10     7.06     0  03:03        0.10
  WS02003106           JUNCTION     0.08     0.11     7.04     0  03:03        0.11
  WS02004050           JUNCTION     0.25     0.31     4.53     0  03:17        0.31
  WS02004053           JUNCTION     0.00     0.00     0.00     0  00:00        0.00
  WS02004136           JUNCTION     0.16     0.18     6.91     0  01:58        0.18
  WS02004139           JUNCTION     0.32     0.37     5.33     0  02:57        0.37
  WS02004401           JUNCTION     0.17     0.33     6.33     0  03:09        0.33
  WS02004402           JUNCTION     0.17     0.33     6.29     0  03:08        0.32
  WS02004403           JUNCTION     0.15     0.31     6.24     0  03:10        0.31
  WS02004404           JUNCTION     0.22     0.39     6.24     0  03:10        0.39
  WS02004405           JUNCTION     0.23     0.39     6.23     0  03:10        0.39
  WS02004406           JUNCTION     0.21     0.37     6.20     0  03:11        0.36
  WS02004407           JUNCTION     0.20     0.35     6.15     0  03:11        0.35
  WS02004409           JUNCTION     0.19     0.34     6.11     0  03:11        0.34
  WS02004410           JUNCTION     0.19     0.33     6.05     0  03:11        0.33
  WS02004411           JUNCTION     0.18     0.31     5.99     0  03:11        0.31
  WS02004412           JUNCTION     0.14     0.26     5.90     0  03:12        0.26
  WS02004413           JUNCTION     0.15     0.27     5.74     0  03:12        0.27
  WS02004997           JUNCTION     2.55     2.75     4.36     0  02:55        2.73
  WS02005192           JUNCTION     0.07     0.26     8.13     0  02:57        0.25
  WS02005193           JUNCTION     0.09     0.27     8.09     0  02:58        0.27
  WS02005196           JUNCTION     0.08     0.26     8.11     0  02:58        0.25
  WS02006109           JUNCTION     0.20     0.41     7.03     0  03:06        0.41
  WS02006110           JUNCTION     0.20     0.38     6.98     0  03:06        0.37
  WS02006111           JUNCTION     0.09     0.19     6.77     0  03:07        0.19
  WS02006112           JUNCTION     0.19     0.36     6.48     0  03:07        0.36
  WS02006113           JUNCTION     0.17     0.32     6.91     0  03:07        0.31
  WS02006115           JUNCTION     0.15     0.32     6.42     0  03:08        0.32
  WS02006116           JUNCTION     0.17     0.34     6.38     0  03:09        0.34
  WS02006183           JUNCTION     0.00     0.00     0.00     0  00:00        0.00
  WS02006228           JUNCTION     0.20     0.41     7.06     0  03:06        0.41
  WS02006229           JUNCTION     0.17     0.38     7.07     0  03:05        0.37
  WS02006230           JUNCTION     0.16     0.37     7.12     0  03:04        0.37
  WS02006231           JUNCTION     0.12     0.30     7.20     0  03:04        0.30
  WS02006232           JUNCTION     0.12     0.29     7.32     0  03:03        0.29
  WS02006234           JUNCTION     0.12     0.29     7.45     0  03:03        0.29
  WS02006235           JUNCTION     0.16     0.34     7.51     0  03:03        0.34
  WS02006238           JUNCTION     0.16     0.35     7.53     0  03:03        0.35
  WS02006239           JUNCTION     0.16     0.38     7.59     0  03:02        0.38
  WS02006242           JUNCTION     0.17     0.40     7.70     0  03:03        0.40
  WS02006240           JUNCTION     0.13     0.34     7.63     0  03:02        0.34
  WS02006243           JUNCTION     0.12     0.33     7.75     0  03:01        0.32
  WS02006245           JUNCTION     0.12     0.34     7.83     0  03:00        0.33
  WS02006247           JUNCTION     0.14     0.36     7.87     0  03:00        0.35
  WS02006248           JUNCTION     0.10     0.33     7.92     0  03:00        0.32
  WS02006249           JUNCTION     0.13     0.36     7.96     0  02:59        0.36
  WS02006251           JUNCTION     0.11     0.36     8.03     0  02:59        0.35
  WS02006253           JUNCTION     0.08     0.29     8.09     0  02:59        0.29
  WS02618401           JUNCTION     0.00     0.00     0.00     0  00:00        0.00
  WS8802               JUNCTION     0.00     0.00     4.38     0  00:00        0.00
  WSA1649              JUNCTION     0.00     0.00     0.00     0  00:00        0.00
  WSF200               JUNCTION     0.10     0.18     5.28     0  03:13        0.17
  XR-Inflow            JUNCTION     2.37     2.57     4.38     0  02:55        2.55
  WS02004114           JUNCTION     2.55     2.74     4.34     0  02:55        2.72
  outfall-2            OUTFALL      0.00     0.00     7.00     0  00:00        0.00
  outfall-5            OUTFALL      0.00     0.00     7.67     0  00:00        0.00
  outfall-14           OUTFALL      0.00     0.00     7.66     0  00:00        0.00
  outfall-16           OUTFALL      0.00     0.00     8.39     0  00:00        0.00
  12                   OUTFALL      0.24     0.31     0.31     0  03:17        0.31
  XR-storage           STORAGE      3.64     3.83     4.33     0  02:55        3.81
  CC-storage           STORAGE      3.34     5.02     8.20     0  01:43        5.00
  JK-storage           STORAGE      3.48     4.80     7.80     0  02:18        4.80
  
  
  *******************
  Node Inflow Summary
  *******************
  
  -------------------------------------------------------------------------------------------------
                                  Maximum  Maximum                  Lateral       Total        Flow
                                  Lateral    Total  Time of Max      Inflow      Inflow     Balance
                                   Inflow   Inflow   Occurrence      Volume      Volume       Error
  Node                 Type           MLD      MLD  days hr:min    10^6 ltr    10^6 ltr     Percent
  -------------------------------------------------------------------------------------------------
  WS01000070           JUNCTION      0.00     0.00     0  00:00           0           0       0.000 ltr
  WS01000323           JUNCTION      0.00     0.00     0  00:00           0           0       0.000 ltr
  WS01000533           JUNCTION      0.00     0.00     0  00:00           0           0       0.000 ltr
  WS01005172           JUNCTION      0.00     0.00     0  00:00           0           0       0.000 ltr
  WS01005181           JUNCTION      0.00     0.00     0  00:00           0           0       0.000 ltr
  WS01009841           JUNCTION      0.00     0.00     0  00:00           0           0       0.000 ltr
  WS02000078           JUNCTION      0.00     0.00     0  00:00           0           0       0.000 ltr
  WS02000112           JUNCTION      0.00     0.00     0  00:00           0           0       0.000 ltr
  WS02000136           JUNCTION      0.00     0.00     0  00:00           0           0       0.000 ltr
  WS02001211           JUNCTION      0.25    33.97     0  02:57      0.0391        4.14       0.563
  WS02001212           JUNCTION      0.21    34.12     0  02:58      0.0331        4.15       0.302
  WS02001213           JUNCTION      0.30    34.19     0  02:59       0.047        4.18       0.409
  WS02003059           JUNCTION      0.23    34.56     0  02:59      0.0362         4.2       0.473
  WS02003060           JUNCTION      0.16    57.51     0  03:13      0.0243         5.5       0.561
  WS02003066           JUNCTION      0.08    27.31     0  03:13      0.0117        1.28       0.223
  WS02003067           JUNCTION      0.26    25.04     0  03:13      0.0381        1.28       0.546
  WS02003071           JUNCTION      0.35    55.26     0  03:14      0.0518        5.52       0.532
  WS02003072           JUNCTION      0.24    55.83     0  03:15      0.0367        5.53       0.305
  WS02003073           JUNCTION      0.07    57.47     0  03:15     0.00943        5.64       0.291
  WS02003076           JUNCTION      0.72    59.07     0  03:16       0.115        5.74       0.192
  WS02003077           JUNCTION      0.04     1.62     0  03:02     0.00569       0.119       0.242
  WS02003078           JUNCTION      0.03     1.81     0  03:02     0.00405       0.113      -0.100
  WS02003079           JUNCTION      0.04     1.44     0  03:04     0.00541       0.109       0.426
  WS02003093           JUNCTION      0.02     0.02     0  01:00     0.00295     0.00295       0.460
  WS02003094           JUNCTION      0.69     0.71     0  03:01      0.0446      0.0476       1.907
  WS02003098           JUNCTION      0.02     0.71     0  03:01     0.00283      0.0495       0.997
  WS02003099           JUNCTION      0.07     0.77     0  03:02      0.0105      0.0596       2.178
  WS02003102           JUNCTION      0.61     1.36     0  03:01      0.0367       0.095       1.063
  WS02003103           JUNCTION      0.02     1.35     0  03:01      0.0023      0.0963       0.765
  WS02003104           JUNCTION      0.02     1.37     0  03:02     0.00291      0.0985       0.621
  WS02003106           JUNCTION      0.05     1.40     0  03:03     0.00702       0.105       0.811
  WS02004050           JUNCTION      0.72    60.15     0  03:19       0.114        5.85       0.655
  WS02004053           JUNCTION      0.00     0.00     0  00:00           0           0       0.000 ltr
  WS02004136           JUNCTION      0.44    32.92     0  01:48      0.0676        4.06       0.063
  WS02004139           JUNCTION      0.38    33.60     0  01:58      0.0595        4.12       0.383
  WS02004401           JUNCTION      0.05    22.06     0  03:07      0.0086       0.935       0.563
  WS02004402           JUNCTION      0.22    22.00     0  03:08      0.0323       0.962       0.500
  WS02004403           JUNCTION      0.23    22.22     0  03:08      0.0336       0.991       0.424
  WS02004404           JUNCTION      0.24    22.47     0  03:08      0.0352        1.02       0.420
  WS02004405           JUNCTION      0.45    22.39     0  03:09      0.0324        1.05       0.619
  WS02004406           JUNCTION      0.70    22.60     0  03:09      0.0521         1.1       0.925
  WS02004407           JUNCTION      0.11    22.22     0  03:10      0.0165         1.1       0.841
  WS02004409           JUNCTION      0.59    22.02     0  03:10      0.0546        1.15       0.720
  WS02004410           JUNCTION      0.15    22.19     0  03:11      0.0217        1.16       0.741
  WS02004411           JUNCTION      0.25    22.04     0  03:11      0.0365        1.19       0.633
  WS02004412           JUNCTION      0.76    23.25     0  03:12      0.0515        1.23       0.499
  WS02004413           JUNCTION      0.11    24.07     0  03:12      0.0166        1.24       0.454
  WS02004997           JUNCTION      0.42    32.27     0  03:00      0.0665        4.02       0.908
  WS02005192           JUNCTION      0.78     3.10     0  02:57      0.0548      0.0599       0.485
  WS02005193           JUNCTION      0.09     5.80     0  02:56       0.014       0.118       0.471
  WS02005196           JUNCTION      0.12     3.97     0  02:56      0.0183       0.089       0.690
  WS02006109           JUNCTION      0.08    21.86     0  03:05      0.0129       0.773       0.685
  WS02006110           JUNCTION      0.08    21.00     0  03:06      0.0126        0.78       0.679
  WS02006111           JUNCTION      0.24    22.31     0  03:07      0.0352        0.87       0.215
  WS02006112           JUNCTION      0.18    22.39     0  03:07      0.0263       0.894       0.558
  WS02006113           JUNCTION      0.84    22.15     0  03:06       0.064       0.839       0.477
  WS02006115           JUNCTION      0.08    22.01     0  03:08      0.0129       0.902       0.581
  WS02006116           JUNCTION      0.24    22.04     0  03:08      0.0347       0.932       0.576
  WS02006183           JUNCTION      0.00     0.00     0  00:00           0           0       0.000 ltr
  WS02006228           JUNCTION      0.74    22.00     0  03:05      0.0591       0.763       0.443
  WS02006229           JUNCTION      0.13    21.49     0  03:04      0.0193       0.707       0.374
  WS02006230           JUNCTION      0.07    21.86     0  03:04      0.0111        0.69       0.327
  WS02006231           JUNCTION      0.13    21.59     0  03:03      0.0197        0.68       0.183
  WS02006232           JUNCTION      0.56    21.34     0  03:03      0.0396       0.661       0.208
  WS02006234           JUNCTION      0.14    20.50     0  03:03      0.0208       0.623       0.204
  WS02006235           JUNCTION      0.14    20.34     0  03:03      0.0215       0.603       0.128
  WS02006238           JUNCTION      0.15    20.32     0  03:03      0.0226       0.583       0.228
  WS02006239           JUNCTION      0.11    20.12     0  03:02      0.0168       0.562       0.338
  WS02006242           JUNCTION      0.08    20.40     0  03:01      0.0124        0.54       0.421
  WS02006240           JUNCTION      0.06    20.13     0  03:02     0.00952       0.547       0.247
  WS02006243           JUNCTION      0.17    20.85     0  03:01      0.0259       0.528       0.175
  WS02006245           JUNCTION      0.07    20.92     0  03:00      0.0109       0.503       0.173
  WS02006247           JUNCTION      0.43    20.33     0  03:00      0.0396       0.493       0.207
  WS02006248           JUNCTION      0.12    19.85     0  02:59      0.0185       0.454       0.073
  WS02006249           JUNCTION      0.19    20.38     0  02:59      0.0275       0.437       0.363
  WS02006251           JUNCTION      0.22    20.45     0  02:59      0.0182        0.41       0.135
  WS02006253           JUNCTION      0.11    19.92     0  02:58      0.0166       0.412      -0.009
  WS02618401           JUNCTION      0.00     0.00     0  00:00           0           0       0.000 ltr
  WS8802               JUNCTION      0.00     0.00     0  00:00           0           0       0.000 ltr
  WSA1649              JUNCTION      0.00     0.00     0  00:00           0           0       0.000 ltr
  WSF200               JUNCTION      0.14    25.87     0  03:13      0.0208         1.3       0.204
  XR-Inflow            JUNCTION     31.88    31.88     0  03:00        3.97        3.97       0.525
  WS02004114           JUNCTION      0.57    32.79     0  03:00       0.088        4.07       0.448
  outfall-2            OUTFALL       0.00     0.00     0  00:00           0           0       0.000 ltr
  outfall-5            OUTFALL       0.00     0.00     0  00:00           0           0       0.000 ltr
  outfall-14           OUTFALL       0.00     0.00     0  00:00           0           0       0.000 ltr
  outfall-16           OUTFALL       0.00     0.00     0  00:00           0           0       0.000 ltr
  12                   OUTFALL       0.00    58.41     0  03:17           0        5.81       0.000
  XR-storage           STORAGE       0.00    32.74     0  03:00           0        4.05       0.695
  CC-storage           STORAGE       3.68     3.68     0  03:00       0.391       0.391       0.003
  JK-storage           STORAGE       3.15     3.15     0  03:00        0.29        0.29       0.001
  
  
  **********************
  Node Surcharge Summary
  **********************
  
  Surcharging occurs when water rises above the top of the highest conduit.
  ---------------------------------------------------------------------
                                               Max. Height   Min. Depth
                                   Hours       Above Crown    Below Rim
  Node                 Type      Surcharged         Meters       Meters
  ---------------------------------------------------------------------
  WS01000070           JUNCTION        3.83          0.000        0.000
  WS01000323           JUNCTION        3.83          0.000        0.000
  WS01000533           JUNCTION        3.83          0.000        2.147
  WS01005172           JUNCTION        3.83          0.000        0.000
  WS01005181           JUNCTION        3.83          0.000        0.000
  WS01009841           JUNCTION        3.83          0.000        0.000
  WS02000078           JUNCTION        3.83          0.000        0.000
  WS02000112           JUNCTION        3.83          0.000        0.000
  WS02000136           JUNCTION        3.83          0.000        0.000
  WS02004053           JUNCTION        3.83          0.000        0.000
  WS02004997           JUNCTION        3.71          1.847        4.153
  WS02006183           JUNCTION        3.83          0.000        0.000
  WS02618401           JUNCTION        3.83          0.000        0.000
  WS8802               JUNCTION        3.83          0.000        4.942
  WSA1649              JUNCTION        3.83          0.000        0.000
  XR-Inflow            JUNCTION        3.71          1.666        3.984
  WS02004114           JUNCTION        3.72          1.842        4.673
  XR-storage           STORAGE         3.79          2.929        3.891
  
  
  *********************
  Node Flooding Summary
  *********************
  
  Flooding refers to all water that overflows a node, whether it ponds or not.
  --------------------------------------------------------------------------
                                                             Total   Maximum
                                 Maximum   Time of Max       Flood    Ponded
                        Hours       Rate    Occurrence      Volume     Depth
  Node                 Flooded       MLD   days hr:min    10^6 ltr    Meters
  --------------------------------------------------------------------------
  JK-storage              1.53      3.15      0  03:00       0.154     0.000
  
  
  **********************
  Storage Volume Summary
  **********************
  
  --------------------------------------------------------------------------------------------------
                         Average     Avg  Evap Exfil       Maximum     Max    Time of Max    Maximum
                          Volume    Pcnt  Pcnt  Pcnt        Volume    Pcnt     Occurrence    Outflow
  Storage Unit           1000 m3    Full  Loss  Loss       1000 m3    Full    days hr:min        MLD
  --------------------------------------------------------------------------------------------------
  XR-storage               0.030      47     0     0         0.031      50       0  02:55      32.48
  CC-storage               0.094      59     0     0         0.142      89       0  01:43      17.28
  JK-storage               0.098      73     0     0         0.136     100       0  02:18       0.00
  
  
  ***********************
  Outfall Loading Summary
  ***********************
  
  ---------------------------------------------------------------------------------------------------------------------------------
                         Flow       Avg       Max       Total         Total         Total         Total         Total         Total
                         Freq      Flow      Flow      Volume           COD         NH3-N            TN            TP            SS
  Outfall Node           Pcnt       MLD       MLD    10^6 ltr            kg            kg            kg            kg            kg
  ---------------------------------------------------------------------------------------------------------------------------------
  outfall-2              0.00      0.00      0.00       0.000         0.000         0.000         0.000         0.000         0.000
  outfall-5              0.00      0.00      0.00       0.000         0.000         0.000         0.000         0.000         0.000
  outfall-14             0.00      0.00      0.00       0.000         0.000         0.000         0.000         0.000         0.000
  outfall-16             0.00      0.00      0.00       0.000         0.000         0.000         0.000         0.000         0.000
  12                    99.97     37.87     58.41       5.807       837.123         0.000         0.000         0.000         0.000
  ---------------------------------------------------------------------------------------------------------------------------------
  System                19.99     37.87     58.41       5.807       837.123         0.000         0.000         0.000         0.000
  
  
  ********************
  Link Flow Summary
  ********************
  
  -----------------------------------------------------------------------------
                                 Maximum  Time of Max   Maximum    Max/    Max/
                                  |Flow|   Occurrence   |Veloc|    Full    Full
  Link                 Type          MLD  days hr:min     m/sec    Flow   Depth
  -----------------------------------------------------------------------------
  WSL49                CONDUIT     58.35     0  03:16      1.75    0.73    0.38
  WSL1465              CONDUIT     34.60     0  03:00      1.65    0.31    0.43
  WSL1472              CONDUIT     55.62     0  03:15      1.58    0.63    0.39
  WSL1475              CONDUIT     59.44     0  03:19      2.14    0.63    0.27
  WSL1476              CONDUIT      1.52     0  03:03      0.45    0.01    0.33
  WSL1477              CONDUIT      1.79     0  03:02      1.36    0.07    0.10
  WSL1490              CONDUIT     33.92     0  02:58      1.38    0.55    0.40
  WSL1491              CONDUIT     33.90     0  02:59      1.44    0.20    0.41
  WSL1492              CONDUIT     34.33     0  02:59      1.38    0.53    0.43
  WSL1507              CONDUIT      0.02     0  01:46      0.13    0.00    0.06
  WSL1508              CONDUIT      0.70     0  03:01      0.39    0.02    0.09
  WSL1512              CONDUIT      0.71     0  03:02      0.30    0.00    0.08
  WSL1513              CONDUIT      0.76     0  03:04      0.26    0.04    0.12
  WSL1515              CONDUIT     27.24     0  03:13      1.88    0.27    0.21
  WSL1516              CONDUIT      1.59     0  03:02      2.26    0.01    0.07
  WSL1518              CONDUIT      1.34     0  03:01      0.44    0.03    0.12
  WSL1519              CONDUIT      1.36     0  03:03      0.41    0.03    0.13
  WSL1521              CONDUIT      1.41     0  03:04      0.47    0.04    0.12
  WSL1543              CONDUIT      1.35     0  03:02      0.41    0.04    0.13
  WSL1961              CONDUIT     33.21     0  01:58      3.05    0.07    0.27
  WSL1964              CONDUIT     33.73     0  02:57      1.38    0.18    0.33
  WSL2010              CONDUIT     22.03     0  03:08      1.23    0.28    0.31
  WSL2011              CONDUIT     22.28     0  03:08      1.13    0.14    0.35
  WSL2012              CONDUIT     22.07     0  03:09      0.94    0.34    0.39
  WSL2013              CONDUIT     22.04     0  03:09      1.00    0.55    0.38
  WSL2014              CONDUIT     22.12     0  03:10      1.06    0.35    0.36
  WSL2015              CONDUIT     21.56     0  03:10      1.08    0.29    0.34
  WSL2016              CONDUIT     22.06     0  03:11      1.13    0.25    0.33
  WSL2017              CONDUIT     21.84     0  03:11      1.20    0.27    0.32
  WSL2018              CONDUIT     23.97     0  03:12      1.69    0.14    0.26
  WSL2019              CONDUIT     24.84     0  03:13      1.62    0.15    0.28
  WSL2028              CONDUIT     21.82     0  03:08      1.15    0.23    0.32
  WSL2029              CONDUIT     22.72     0  03:12      1.46    0.29    0.28
  WSL2038              CONDUIT      2.75     0  02:58      0.43    0.14    0.39
  WSL2039              CONDUIT      6.13     0  03:02      1.23    0.32    0.46
  WSL2041              CONDUIT      3.73     0  01:44      0.72    0.18    0.43
  WSL2294              CONDUIT     20.92     0  03:06      1.01    0.70    0.49
  WSL2295              CONDUIT     21.44     0  03:06      1.19    0.96    0.43
  WSL2296              CONDUIT     22.25     0  03:07      1.71    0.13    0.35
  WSL2297              CONDUIT     21.93     0  03:08      1.13    0.42    0.34
  WSL2298              CONDUIT     22.12     0  03:07      1.89    1.02    0.32
  WSL2301              CONDUIT     21.85     0  03:08      1.16    0.20    0.33
  WSL2302              CONDUIT     22.01     0  03:07      1.14    0.27    0.33
  WSL2441              CONDUIT     21.78     0  03:05      1.08    0.56    0.51
  WSL2442              CONDUIT     21.38     0  03:04      1.26    0.55    0.53
  WSL2443              CONDUIT     21.79     0  03:04      1.42    0.34    0.47
  WSL2444              CONDUIT     21.48     0  03:03      1.63    0.34    0.42
  WSL2446              CONDUIT     20.84     0  03:03      1.61    0.36    0.41
  WSL2447              CONDUIT     20.39     0  03:03      1.41    1.05    0.45
  WSL2448              CONDUIT     20.21     0  03:03      1.25    0.57    0.49
  WSL2449              CONDUIT     20.19     0  03:03      1.16    0.70    0.52
  WSL2450              CONDUIT     20.02     0  03:02      1.18    0.42    0.51
  WSL2451              CONDUIT     20.07     0  03:02      1.15    1.31    0.52
  WSL2452              CONDUIT     20.33     0  03:01      1.24    0.39    0.51
  WSL2454              CONDUIT     20.71     0  03:01      1.48    0.48    0.47
  WSL2478              CONDUIT     20.86     0  03:00      1.28    0.74    0.49
  WSL2479              CONDUIT     19.91     0  03:00      1.24    0.38    0.49
  WSL2480              CONDUIT     19.73     0  02:59      1.24    0.91    0.49
  WSL2482              CONDUIT     20.21     0  02:59      1.21    0.53    0.51
  WSL2484              CONDUIT     20.24     0  02:59      1.90    0.29    0.45
  WSL2493              CONDUIT     21.28     0  03:05      1.12    0.36    0.49
  WSL2867              CONDUIT     25.75     0  03:13      2.73    0.05    0.15
  WSL2868              CONDUIT     25.28     0  03:13      1.25    0.05    0.27
  WSL348               CONDUIT     31.86     0  03:00      1.86    0.29    1.00
  WSL175               CONDUIT     32.25     0  03:00      2.30    1.09    1.00
  WSL1467              CONDUIT     54.97     0  03:14      1.49    0.29    0.41
  WSL1473              CONDUIT     56.15     0  03:15      1.69    0.23    0.38
  XRpipe               CONDUIT     32.74     0  03:00      2.53    0.08    1.00
  8                    CONDUIT      0.00     0  00:00      0.00    0.00    0.00
  19                   CONDUIT      0.00     0  00:00      0.00    0.00    0.00
  17                   CONDUIT      0.00     0  00:00      0.00    0.00    0.00
  4                    CONDUIT      0.00     0  00:00      0.00    0.00    0.00
  2                    CONDUIT     58.41     0  03:17      3.23    0.21    0.31
  XR-Pump-1            PUMP         8.12     0  00:08              1.00
  XR-Pump-3            PUMP         8.12     0  00:09              1.00
  XR-Pump-2            PUMP         8.12     0  00:09              1.00
  XR-Pump-4            PUMP         8.12     0  01:48              1.00
  CC-Pump-1            PUMP        17.28     0  01:43              1.00
  CC-Pump-2            PUMP         0.00     0  00:00              0.00
  JK-Pump-1            PUMP         0.00     0  00:00              0.00
  JK-Pump-2            PUMP         0.00     0  00:00              0.00
  
  
  ***************************
  Flow Classification Summary
  ***************************
  
  -------------------------------------------------------------------------------------
                      Adjusted    ---------- Fraction of Time in Flow Class ---------- 
                       /Actual         Up    Down  Sub   Sup   Up    Down  Norm  Inlet 
  Conduit               Length    Dry  Dry   Dry   Crit  Crit  Crit  Crit  Ltd   Ctrl  
  -------------------------------------------------------------------------------------
  WSL49                   1.00   0.00  0.00  0.00  1.00  0.00  0.00  0.00  0.00  0.00
  WSL1465                 1.00   0.00  0.00  0.00  1.00  0.00  0.00  0.00  0.11  0.00
  WSL1472                 1.00   0.00  0.00  0.00  1.00  0.00  0.00  0.00  0.00  0.00
  WSL1475                 1.00   0.00  0.00  0.00  0.06  0.94  0.00  0.00  0.00  0.00
  WSL1476                 1.00   0.00  0.00  0.00  1.00  0.00  0.00  0.00  1.00  0.00
  WSL1477                 1.00   0.00  0.00  0.00  0.01  0.99  0.00  0.00  0.23  0.00
  WSL1490                 1.00   0.00  0.00  0.00  1.00  0.00  0.00  0.00  0.00  0.00
  WSL1491                 1.00   0.00  0.00  0.00  1.00  0.00  0.00  0.00  0.04  0.00
  WSL1492                 1.00   0.00  0.00  0.00  1.00  0.00  0.00  0.00  0.00  0.00
  WSL1507                 1.00   0.00  0.00  0.00  1.00  0.00  0.00  0.00  1.00  0.00
  WSL1508                 1.00   0.00  0.00  0.00  1.00  0.00  0.00  0.00  0.00  0.00
  WSL1512                 1.00   0.00  0.00  0.00  1.00  0.00  0.00  0.00  1.00  0.00
  WSL1513                 1.00   0.00  0.00  0.00  1.00  0.00  0.00  0.00  0.00  0.00
  WSL1515                 1.00   0.00  0.00  0.00  0.06  0.94  0.00  0.00  0.01  0.00
  WSL1516                 1.00   0.00  0.00  0.00  0.00  1.00  0.00  0.00  1.00  0.00
  WSL1518                 1.00   0.00  0.00  0.00  1.00  0.00  0.00  0.00  1.00  0.00
  WSL1519                 1.00   0.00  0.00  0.00  1.00  0.00  0.00  0.00  0.54  0.00
  WSL1521                 1.00   0.00  0.00  0.00  1.00  0.00  0.00  0.00  0.02  0.00
  WSL1543                 1.00   0.00  0.00  0.00  1.00  0.00  0.00  0.00  0.02  0.00
  WSL1961                 1.00   0.00  0.00  0.00  0.02  0.98  0.00  0.00  0.94  0.00
  WSL1964                 1.00   0.00  0.00  0.00  1.00  0.00  0.00  0.00  0.06  0.00
  WSL2010                 1.00   0.00  0.00  0.00  1.00  0.00  0.00  0.00  0.00  0.00
  WSL2011                 1.00   0.00  0.00  0.00  1.00  0.00  0.00  0.00  0.29  0.00
  WSL2012                 1.00   0.00  0.00  0.00  1.00  0.00  0.00  0.00  0.01  0.00
  WSL2013                 1.00   0.00  0.00  0.00  1.00  0.00  0.00  0.00  0.00  0.00
  WSL2014                 1.00   0.00  0.00  0.00  1.00  0.00  0.00  0.00  0.00  0.00
  WSL2015                 1.00   0.00  0.00  0.00  1.00  0.00  0.00  0.00  0.02  0.00
  WSL2016                 1.00   0.00  0.00  0.00  1.00  0.00  0.00  0.00  0.11  0.00
  WSL2017                 1.00   0.00  0.00  0.00  1.00  0.00  0.00  0.00  0.04  0.00
  WSL2018                 1.00   0.00  0.00  0.00  0.02  0.98  0.00  0.00  0.40  0.00
  WSL2019                 1.00   0.00  0.00  0.00  0.15  0.85  0.00  0.00  0.11  0.00
  WSL2028                 1.00   0.00  0.00  0.00  1.00  0.00  0.00  0.00  0.09  0.00
  WSL2029                 1.00   0.00  0.00  0.00  0.88  0.12  0.00  0.00  0.00  0.00
  WSL2038                 1.00   0.00  0.00  0.00  1.00  0.00  0.00  0.00  0.02  0.00
  WSL2039                 1.00   0.00  0.00  0.00  0.96  0.04  0.00  0.00  0.01  0.00
  WSL2041                 1.00   0.00  0.00  0.00  1.00  0.00  0.00  0.00  0.76  0.00
  WSL2294                 1.00   0.00  0.00  0.00  1.00  0.00  0.00  0.00  0.00  0.00
  WSL2295                 1.00   0.00  0.00  0.00  1.00  0.00  0.00  0.00  0.00  0.00
  WSL2296                 1.00   0.00  0.00  0.00  0.64  0.36  0.00  0.00  0.97  0.00
  WSL2297                 1.00   0.00  0.00  0.00  1.00  0.00  0.00  0.00  0.00  0.00
  WSL2298                 1.00   0.00  0.00  0.00  0.06  0.94  0.00  0.00  0.00  0.00
  WSL2301                 1.00   0.00  0.00  0.00  1.00  0.00  0.00  0.00  0.09  0.00
  WSL2302                 1.00   0.00  0.00  0.00  1.00  0.00  0.00  0.00  0.01  0.00
  WSL2441                 1.00   0.00  0.00  0.00  1.00  0.00  0.00  0.00  0.01  0.00
  WSL2442                 1.00   0.00  0.00  0.00  1.00  0.00  0.00  0.00  0.39  0.00
  WSL2443                 1.00   0.00  0.00  0.00  0.99  0.01  0.00  0.00  0.88  0.00
  WSL2444                 1.00   0.00  0.00  0.00  0.02  0.98  0.00  0.00  0.55  0.00
  WSL2446                 1.00   0.00  0.00  0.00  0.03  0.97  0.00  0.00  0.33  0.00
  WSL2447                 1.00   0.00  0.00  0.00  1.00  0.00  0.00  0.00  0.00  0.00
  WSL2448                 1.00   0.00  0.00  0.00  1.00  0.00  0.00  0.00  0.02  0.00
  WSL2449                 1.00   0.00  0.00  0.00  1.00  0.00  0.00  0.00  0.08  0.00
  WSL2450                 1.00   0.00  0.00  0.00  1.00  0.00  0.00  0.00  0.84  0.00
  WSL2451                 1.00   0.00  0.00  0.00  1.00  0.00  0.00  0.00  0.00  0.00
  WSL2452                 1.00   0.00  0.00  0.00  1.00  0.00  0.00  0.00  0.88  0.00
  WSL2454                 1.00   0.00  0.00  0.00  0.99  0.01  0.00  0.00  0.12  0.00
  WSL2478                 1.00   0.00  0.00  0.00  1.00  0.00  0.00  0.00  0.00  0.00
  WSL2479                 1.00   0.00  0.00  0.00  1.00  0.00  0.00  0.00  0.87  0.00
  WSL2480                 1.00   0.00  0.00  0.00  1.00  0.00  0.00  0.00  0.00  0.00
  WSL2482                 1.00   0.00  0.00  0.00  1.00  0.00  0.00  0.00  0.89  0.00
  WSL2484                 1.00   0.00  0.00  0.00  0.98  0.02  0.00  0.00  0.88  0.00
  WSL2493                 1.00   0.00  0.00  0.00  1.00  0.00  0.00  0.00  0.05  0.00
  WSL2867                 1.00   0.00  0.00  0.00  0.00  1.00  0.00  0.00  0.16  0.00
  WSL2868                 1.00   0.00  0.00  0.00  0.98  0.02  0.00  0.00  0.99  0.00
  WSL348                  1.00   0.00  0.00  0.00  1.00  0.00  0.00  0.00  0.01  0.00
  WSL175                  1.00   0.00  0.00  0.00  0.99  0.01  0.00  0.00  0.00  0.00
  WSL1467                 1.00   0.00  0.00  0.00  1.00  0.00  0.00  0.00  0.06  0.00
  WSL1473                 1.00   0.00  0.00  0.00  1.00  0.00  0.00  0.00  0.05  0.00
  XRpipe                  1.00   0.00  0.00  0.00  0.99  0.01  0.00  0.00  0.00  0.00
  8                       1.00   1.00  0.00  0.00  0.00  0.00  0.00  0.00  0.00  0.00
  19                      1.00   1.00  0.00  0.00  0.00  0.00  0.00  0.00  0.00  0.00
  17                      1.00   1.00  0.00  0.00  0.00  0.00  0.00  0.00  0.00  0.00
  4                       1.00   1.00  0.00  0.00  0.00  0.00  0.00  0.00  0.00  0.00
  2                       1.00   0.00  0.00  0.00  0.00  1.00  0.00  0.00  0.30  0.00
  
  
  *************************
  Conduit Surcharge Summary
  *************************
  
  ----------------------------------------------------------------------------
                                                           Hours        Hours 
                         --------- Hours Full --------   Above Full   Capacity
  Conduit                Both Ends  Upstream  Dnstream   Normal Flow   Limited
  ----------------------------------------------------------------------------
  WSL2298                     0.01      0.01      0.01      0.01         0.01
  WSL2447                     0.01      0.01      0.01      0.09         0.01
  WSL2451                     0.01      0.01      0.01      0.24         0.01
  WSL348                      3.71      3.71      3.71      0.01         0.01
  WSL175                      3.71      3.71      3.72      0.58         0.78
  XRpipe                      3.72      3.72      3.79      0.01         0.01
  
  
  ***************
  Pumping Summary
  ***************
  
  ---------------------------------------------------------------------------------------------------------
                                                  Min       Avg       Max     Total     Power    % Time Off
                        Percent   Number of      Flow      Flow      Flow    Volume     Usage    Pump Curve
  Pump                 Utilized   Start-Ups       MLD       MLD       MLD  10^6 ltr     Kw-hr    Low   High
  ---------------------------------------------------------------------------------------------------------
  XR-Pump-1               96.24           1      0.00      8.12      8.12     1.248      9.16    0.0    0.0
  XR-Pump-3               89.81          22      0.00      8.12      8.12     1.165      8.54    0.0    0.0
  XR-Pump-2               96.09           1      0.00      8.12      8.12     1.246      9.14    0.0    0.0
  XR-Pump-4               25.69          67      0.00      8.12      8.12     0.333      2.40    0.0    0.0
  CC-Pump-1               10.51           4      0.00     17.28     17.28     0.290      0.74    0.0    0.0
  CC-Pump-2                0.00           0      0.00      0.00      0.00     0.000      0.00    0.0    0.0
  JK-Pump-1                0.00           0      0.00      0.00      0.00     0.000      0.00    0.0    0.0
  JK-Pump-2                0.00           0      0.00      0.00      0.00     0.000      0.00    0.0    0.0
  
  
  ***************************
  Link Pollutant Load Summary
  ***************************
  
  ------------------------------------------------------------------------------------------
                                 COD         NH3-N            TN            TP            SS
  Link                            kg            kg            kg            kg            kg
  ------------------------------------------------------------------------------------------
  WSL49                      803.442         0.000         0.000         0.000         0.000
  WSL1465                    600.179         0.000         0.000         0.000         0.000
  WSL1472                    788.306         0.000         0.000         0.000         0.000
  WSL1475                    821.338         0.000         0.000         0.000         0.000
  WSL1476                     11.670         0.000         0.000         0.000         0.000
  WSL1477                      9.657         0.000         0.000         0.000         0.000
  WSL1490                    586.333         0.000         0.000         0.000         0.000
  WSL1491                    590.207         0.000         0.000         0.000         0.000
  WSL1492                    596.532         0.000         0.000         0.000         0.000
  WSL1507                      0.490         0.000         0.000         0.000         0.000
  WSL1508                      3.323         0.000         0.000         0.000         0.000
  WSL1512                      3.782         0.000         0.000         0.000         0.000
  WSL1513                      5.449         0.000         0.000         0.000         0.000
  WSL1515                    177.919         0.000         0.000         0.000         0.000
  WSL1516                     10.341         0.000         0.000         0.000         0.000
  WSL1518                      6.920         0.000         0.000         0.000         0.000
  WSL1519                      7.702         0.000         0.000         0.000         0.000
  WSL1521                      8.801         0.000         0.000         0.000         0.000
  WSL1543                      7.234         0.000         0.000         0.000         0.000
  WSL1961                    574.106         0.000         0.000         0.000         0.000
  WSL1964                    582.553         0.000         0.000         0.000         0.000
  WSL2010                    136.786         0.000         0.000         0.000         0.000
  WSL2011                    141.918         0.000         0.000         0.000         0.000
  WSL2012                    147.273         0.000         0.000         0.000         0.000
  WSL2013                    149.003         0.000         0.000         0.000         0.000
  WSL2014                    153.064         0.000         0.000         0.000         0.000
  WSL2015                    154.632         0.000         0.000         0.000         0.000
  WSL2016                    160.285         0.000         0.000         0.000         0.000
  WSL2017                    162.812         0.000         0.000         0.000         0.000
  WSL2018                    170.463         0.000         0.000         0.000         0.000
  WSL2019                    172.506         0.000         0.000         0.000         0.000
  WSL2028                    131.962         0.000         0.000         0.000         0.000
  WSL2029                    167.925         0.000         0.000         0.000         0.000
  WSL2038                      5.213         0.000         0.000         0.000         0.000
  WSL2039                     14.923         0.000         0.000         0.000         0.000
  WSL2041                     10.032         0.000         0.000         0.000         0.000
  WSL2294                    109.712         0.000         0.000         0.000         0.000
  WSL2295                    111.159         0.000         0.000         0.000         0.000
  WSL2296                    120.596         0.000         0.000         0.000         0.000
  WSL2297                    124.445         0.000         0.000         0.000         0.000
  WSL2298                    114.901         0.000         0.000         0.000         0.000
  WSL2301                    125.975         0.000         0.000         0.000         0.000
  WSL2302                    131.160         0.000         0.000         0.000         0.000
  WSL2441                    108.198         0.000         0.000         0.000         0.000
  WSL2442                     92.906         0.000         0.000         0.000         0.000
  WSL2443                     91.302         0.000         0.000         0.000         0.000
  WSL2444                     88.141         0.000         0.000         0.000         0.000
  WSL2446                     86.128         0.000         0.000         0.000         0.000
  WSL2447                     82.838         0.000         0.000         0.000         0.000
  WSL2448                     79.372         0.000         0.000         0.000         0.000
  WSL2449                     75.772         0.000         0.000         0.000         0.000
  WSL2450                     73.222         0.000         0.000         0.000         0.000
  WSL2451                     71.791         0.000         0.000         0.000         0.000
  WSL2452                     70.017         0.000         0.000         0.000         0.000
  WSL2454                     65.787         0.000         0.000         0.000         0.000
  WSL2478                     64.072         0.000         0.000         0.000         0.000
  WSL2479                     59.895         0.000         0.000         0.000         0.000
  WSL2480                     56.836         0.000         0.000         0.000         0.000
  WSL2482                     52.442         0.000         0.000         0.000         0.000
  WSL2484                     50.458         0.000         0.000         0.000         0.000
  WSL2493                     95.811         0.000         0.000         0.000         0.000
  WSL2867                    179.500         0.000         0.000         0.000         0.000
  WSL2868                    182.766         0.000         0.000         0.000         0.000
  WSL348                     551.539         0.000         0.000         0.000         0.000
  WSL175                     558.257         0.000         0.000         0.000         0.000
  WSL1467                    783.328         0.000         0.000         0.000         0.000
  WSL1473                    792.287         0.000         0.000         0.000         0.000
  XRpipe                     571.506         0.000         0.000         0.000         0.000
  8                            0.000         0.000         0.000         0.000         0.000
  19                           0.000         0.000         0.000         0.000         0.000
  17                           0.000         0.000         0.000         0.000         0.000
  4                            0.000         0.000         0.000         0.000         0.000
  2                          837.123         0.000         0.000         0.000         0.000
  XR-Pump-1                  179.344         0.000         0.000         0.000         0.000
  XR-Pump-3                  165.505         0.000         0.000         0.000         0.000
  XR-Pump-2                  179.030         0.000         0.000         0.000         0.000
  XR-Pump-4                   38.852         0.000         0.000         0.000         0.000
  CC-Pump-1                   37.941         0.000         0.000         0.000         0.000
  CC-Pump-2                    0.000         0.000         0.000         0.000         0.000
  JK-Pump-1                    0.000         0.000         0.000         0.000         0.000
  JK-Pump-2                    0.000         0.000         0.000         0.000         0.000
  

  Analysis begun on:  Tue Aug 13 20:23:34 2019
  Analysis ended on:  Tue Aug 13 20:23:34 2019
  Total elapsed time: < 1 sec