
  EPA STORM WATER MANAGEMENT MODEL - VERSION 5.1 (Build 5.2.0.dev5)
  --------------------------------------------------------------

  
  *********************************************************
  NOTE: The summary statistics displayed in this report are
  based on results found at every computational time step,  
  not just on results from each reporting time step.
  *********************************************************
  
  ****************
  Analysis Options
  ****************
  Flow Units ............... MLD
  Process Models:
    Rainfall/Runoff ........ YES
    RDII ................... NO
    Snowmelt ............... NO
    Groundwater ............ NO
    Flow Routing ........... YES
    Ponding Allowed ........ NO
    Water Quality .......... YES
  Infiltration Method ...... GREEN_AMPT
  Flow Routing Method ...... DYNWAVE
  Surcharge Method ......... EXTRAN
  Starting Date ............ 08/28/2015 08:00:00
  Ending Date .............. 08/28/2015 11:50:00
  Antecedent Dry Days ...... 4.0
  Report Time Step ......... 00:01:00
  Wet Time Step ............ 00:01:00
  Dry Time Step ............ 00:01:00
  Routing Time Step ........ 5.00 sec
  Variable Time Step ....... YES
  Maximum Trials ........... 8
  Number of Threads ........ 1
  Head Tolerance ........... 0.001500 m
  
  
  **************************        Volume         Depth
  Runoff Quantity Continuity     hectare-m            mm
  **************************     ---------       -------
  Total Precipitation ......         1.623        26.233
  Evaporation Loss .........         0.000         0.000
  Infiltration Loss ........         0.586         9.465
  Surface Runoff ...........         0.439         7.095
  Final Storage ............         0.598         9.674
  Continuity Error (%) .....        -0.004
  
  
  **************************           COD         NH3-N            TN            TP            SS
  Runoff Quality Continuity             kg            kg            kg            kg            kg
  **************************    ----------    ----------    ----------    ----------    ----------
  Initial Buildup ..........      2504.640         0.000         0.000         0.000         0.000
  Surface Buildup ..........        19.516         0.000         0.000         0.000         0.000
  Wet Deposition ...........         0.000         0.000         0.000         0.000         0.000
  Sweeping Removal .........         0.000         0.000         0.000         0.000         0.000
  Infiltration Loss ........       160.490         0.000         0.000         0.000         0.000
  BMP Removal ..............         0.000         0.000         0.000         0.000         0.000
  Surface Runoff ...........       884.549         0.000         0.000         0.000         0.000
  Remaining Buildup ........      1477.617         0.000         0.000         0.000         0.000
  Continuity Error (%) .....         0.059         0.000         0.000         0.000         0.000
  
  
  **************************        Volume        Volume
  Flow Routing Continuity        hectare-m      10^6 ltr
  **************************     ---------     ---------
  Dry Weather Inflow .......         0.000         0.000
  Wet Weather Inflow .......         0.438         4.379
  Groundwater Inflow .......         0.000         0.000
  RDII Inflow ..............         0.000         0.000
  External Inflow ..........         0.082         0.822
  External Outflow .........         0.299         2.993
  Flooding Loss ............         0.155         1.549
  Evaporation Loss .........         0.000         0.000
  Exfiltration Loss ........         0.000         0.000
  Initial Stored Volume ....         0.000         0.000
  Final Stored Volume ......         0.062         0.622
  Continuity Error (%) .....         0.708
  
  
  **************************           COD         NH3-N            TN            TP            SS
  Quality Routing Continuity            kg            kg            kg            kg            kg
  **************************    ----------    ----------    ----------    ----------    ----------
  Dry Weather Inflow .......         0.000         0.000         0.000         0.000         0.000
  Wet Weather Inflow .......       883.177         0.000         0.000         0.000         0.000
  Groundwater Inflow .......         0.000         0.000         0.000         0.000         0.000
  RDII Inflow ..............         0.000         0.000         0.000         0.000         0.000
  External Inflow ..........       137.263         0.000         0.000         0.000         0.000
  External Outflow .........       582.501         0.000         0.000         0.000         0.000
  Flooding Loss ............       320.924         0.000         0.000         0.000         0.000
  Exfiltration Loss ........         0.000         0.000         0.000         0.000         0.000
  Mass Reacted .............         0.000         0.000         0.000         0.000         0.000
  Initial Stored Mass ......         0.000         0.000         0.000         0.000         0.000
  Final Stored Mass ........       109.339         0.000         0.000         0.000         0.000
  Continuity Error (%) .....         0.752         0.000         0.000         0.000         0.000
  
  
  *************************
  Highest Continuity Errors
  *************************
  Node WS02006230 (6.45%)
  Node WS02006229 (4.09%)
  Node WS02006231 (3.69%)
  Node WS02006115 (2.63%)
  Node WS02006242 (2.49%)
  
  
  ***************************
  Time-Step Critical Elements
  ***************************
  Link 8 (88.86%)
  Link WSL2448 (9.07%)
  
  
  ********************************
  Highest Flow Instability Indexes
  ********************************
  Link WSL2302 (3)
  Link WSL2301 (2)
  Link WSL2297 (2)
  Link WSL2296 (2)
  Link WSL2298 (1)
  
  
  *************************
  Routing Time Step Summary
  *************************
  Minimum Time Step           :     0.28 sec
  Average Time Step           :     0.95 sec
  Maximum Time Step           :     5.00 sec
  Percent in Steady State     :    -0.00
  Average Iterations per Step :     2.08
  Percent Not Converging      :     0.50
  
  
  ***************************
  Subcatchment Runoff Summary
  ***************************
  
  ------------------------------------------------------------------------------------------------------------------------------
                            Total      Total      Total      Total     Imperv       Perv      Total       Total     Peak  Runoff
                           Precip      Runon       Evap      Infil     Runoff     Runoff     Runoff      Runoff   Runoff   Coeff
  Subcatchment                 mm         mm         mm         mm         mm         mm         mm    10^6 ltr      MLD
  ------------------------------------------------------------------------------------------------------------------------------
  1                         26.23      38.18       0.00      11.36      15.40      19.98      35.38        0.43     6.63   0.549
  2                         26.23       0.00       0.00       8.92       6.34       3.85      10.19        0.34     6.05   0.389
  3                         26.23       0.00       0.00       9.00       6.29       3.29       9.58        0.49     8.61   0.365
  35                        26.23       0.00       0.00       8.89       6.36       4.00      10.36        0.31     5.53   0.395
  36                        26.23      21.09       0.00      11.03      11.05       8.02      19.07        1.13    16.65   0.403
  40                        26.23       5.48       0.00       9.54       7.58       5.00      12.58        0.49     8.12   0.397
  41                        26.23       0.00       0.00       8.78       6.40       4.68      11.08        0.22     3.79   0.422
  42                        26.23       0.00       0.00       8.83       6.39       4.43      10.82        0.25     4.34   0.412
  43                        26.23       0.00       0.00       8.23       6.50       7.60      14.11        0.05     0.93   0.538
  44                        26.23     316.20       0.00      17.68      84.01     197.86     281.87        1.04    17.00   0.823
  45                        26.23       0.00       0.00       8.60       6.45       5.73      12.18        0.13     2.22   0.464
  46                        26.23      17.79       0.00      10.42      10.54      10.18      20.71        0.44     6.63   0.470
  47                        26.23       0.00       0.00       8.63       6.45       5.60      12.05        0.13     2.37   0.459
  48                        26.23       8.45       0.00       9.55       8.40       7.83      16.23        0.26     4.12   0.468
  55                        26.23      12.67       0.00       9.64       9.48      11.22      20.70        0.17     2.72   0.532
  56                        26.23      19.47       0.00      10.54      10.93      10.76      21.69        0.46     6.91   0.475
  57                        26.23       0.00       0.00       9.00       6.29       3.32       9.61        0.48     8.47   0.366
  59                        26.23       0.00       0.00       8.54       6.47       6.09      12.55        0.11     1.88   0.479
  60                        26.23      27.42       0.00      10.39      13.10      19.87      32.96        0.17     2.70   0.614
  61                        26.23       0.00       0.00       9.19       6.01       1.96       7.96        1.43    25.10   0.304
  64                        26.23       0.00       0.00       8.65       6.44       5.47      11.91        0.14     2.53   0.454
  
  
  ****************************
  Subcatchment Washoff Summary
  ****************************
  
  ------------------------------------------------------------------------------------------
                                 COD         NH3-N            TN            TP            SS
  Subcatchment                    kg            kg            kg            kg            kg
  ------------------------------------------------------------------------------------------
  1                           81.409         0.000         0.000         0.000         0.000
  2                            0.000         0.000         0.000         0.000         0.000
  3                            0.000         0.000         0.000         0.000         0.000
  35                          70.929         0.000         0.000         0.000         0.000
  36                         378.730         0.000         0.000         0.000         0.000
  40                         133.723         0.000         0.000         0.000         0.000
  41                          49.525         0.000         0.000         0.000         0.000
  42                          56.423         0.000         0.000         0.000         0.000
  43                          12.175         0.000         0.000         0.000         0.000
  44                         355.434         0.000         0.000         0.000         0.000
  45                          29.545         0.000         0.000         0.000         0.000
  46                         140.050         0.000         0.000         0.000         0.000
  47                          31.421         0.000         0.000         0.000         0.000
  48                          73.506         0.000         0.000         0.000         0.000
  55                          49.230         0.000         0.000         0.000         0.000
  56                         142.700         0.000         0.000         0.000         0.000
  57                         105.895         0.000         0.000         0.000         0.000
  59                          24.957         0.000         0.000         0.000         0.000
  60                          46.165         0.000         0.000         0.000         0.000
  61                         292.581         0.000         0.000         0.000         0.000
  64                          33.498         0.000         0.000         0.000         0.000
  ------------------------------------------------------------------------------------------
  System                    2107.895         0.000         0.000         0.000         0.000
  
  
  ******************
  Node Depth Summary
  ******************
  
  ---------------------------------------------------------------------------------
                                 Average  Maximum  Maximum  Time of Max    Reported
                                   Depth    Depth      HGL   Occurrence   Max Depth
  Node                 Type       Meters   Meters   Meters  days hr:min      Meters
  ---------------------------------------------------------------------------------
  WS01000070           JUNCTION     0.00     0.00     0.00     0  00:00        0.00
  WS01000323           JUNCTION     0.00     0.00     0.00     0  00:00        0.00
  WS01000533           JUNCTION     0.00     0.00     6.86     0  00:00        0.00
  WS01005172           JUNCTION     0.00     0.00     0.00     0  00:00        0.00
  WS01005181           JUNCTION     0.00     0.00     0.00     0  00:00        0.00
  WS01009841           JUNCTION     0.00     0.00     0.00     0  00:00        0.00
  WS02000078           JUNCTION     0.00     0.00     0.00     0  00:00        0.00
  WS02000112           JUNCTION     0.00     0.00     0.00     0  00:00        0.00
  WS02000136           JUNCTION     0.00     0.00     0.00     0  00:00        0.00
  WS02004053           JUNCTION     0.00     0.00     0.00     0  00:00        0.00
  WS02004401           JUNCTION     2.18     2.35     8.35     0  02:35        2.35
  WS02005192           JUNCTION     0.43     0.51     8.38     0  01:53        0.51
  WS02005193           JUNCTION     0.47     0.55     8.37     0  01:54        0.54
  WS02005196           JUNCTION     0.45     0.53     8.38     0  01:53        0.52
  WS02006109           JUNCTION     1.59     1.76     8.38     0  02:36        1.76
  WS02006110           JUNCTION     1.61     1.78     8.38     0  02:36        1.78
  WS02006111           JUNCTION     1.62     1.78     8.36     0  02:35        1.78
  WS02006112           JUNCTION     2.06     2.24     8.36     0  02:35        2.24
  WS02006113           JUNCTION     1.61     1.78     8.37     0  02:34        1.78
  WS02006115           JUNCTION     2.08     2.25     8.35     0  02:35        2.25
  WS02006116           JUNCTION     2.14     2.31     8.35     0  02:35        2.31
  WS02006183           JUNCTION     0.00     0.00     0.00     0  00:00        0.00
  WS02006228           JUNCTION     1.56     1.73     8.38     0  02:37        1.73
  WS02006229           JUNCTION     1.53     1.69     8.38     0  02:37        1.69
  WS02006230           JUNCTION     1.47     1.63     8.38     0  02:37        1.63
  WS02006231           JUNCTION     1.32     1.48     8.38     0  02:37        1.48
  WS02006232           JUNCTION     1.20     1.35     8.38     0  02:37        1.35
  WS02006234           JUNCTION     1.08     1.22     8.38     0  02:36        1.22
  WS02006235           JUNCTION     1.07     1.21     8.38     0  02:36        1.21
  WS02006238           JUNCTION     1.06     1.20     8.38     0  02:36        1.20
  WS02006239           JUNCTION     1.03     1.16     8.37     0  02:36        1.16
  WS02006242           JUNCTION     0.95     1.07     8.37     0  02:36        1.07
  WS02006240           JUNCTION     0.96     1.08     8.37     0  02:36        1.08
  WS02006243           JUNCTION     0.83     0.94     8.36     0  02:36        0.94
  WS02006245           JUNCTION     0.77     0.87     8.36     0  02:35        0.87
  WS02006247           JUNCTION     0.75     0.85     8.36     0  02:35        0.85
  WS02006248           JUNCTION     0.67     0.76     8.35     0  02:33        0.76
  WS02006249           JUNCTION     0.67     0.76     8.36     0  02:31        0.76
  WS02006251           JUNCTION     0.60     0.69     8.36     0  02:29        0.69
  WS02006253           JUNCTION     0.48     0.56     8.36     0  02:29        0.56
  WS02618401           JUNCTION     0.00     0.00     0.00     0  00:00        0.00
  WSA1649              JUNCTION     0.00     0.00     0.00     0  00:00        0.00
  outfall-5            OUTFALL      0.13     0.16     7.83     0  02:33        0.16
  outfall-14           OUTFALL      0.11     0.15     7.81     0  02:36        0.15
  outfall-16           OUTFALL      0.00     0.00     8.39     0  00:00        0.00
  CC-storage           STORAGE      5.36     5.63     8.81     0  01:32        5.63
  
  
  *******************
  Node Inflow Summary
  *******************
  
  -------------------------------------------------------------------------------------------------
                                  Maximum  Maximum                  Lateral       Total        Flow
                                  Lateral    Total  Time of Max      Inflow      Inflow     Balance
                                   Inflow   Inflow   Occurrence      Volume      Volume       Error
  Node                 Type           MLD      MLD  days hr:min    10^6 ltr    10^6 ltr     Percent
  -------------------------------------------------------------------------------------------------
  WS01000070           JUNCTION      0.00     0.00     0  00:00           0           0       0.000 ltr
  WS01000323           JUNCTION      0.00     0.00     0  00:00           0           0       0.000 ltr
  WS01000533           JUNCTION      0.00     0.00     0  00:00           0           0       0.000 ltr
  WS01005172           JUNCTION      0.00     0.00     0  00:00           0           0       0.000 ltr
  WS01005181           JUNCTION      0.00     0.00     0  00:00           0           0       0.000 ltr
  WS01009841           JUNCTION      0.00     0.00     0  00:00           0           0       0.000 ltr
  WS02000078           JUNCTION      0.00     0.00     0  00:00           0           0       0.000 ltr
  WS02000112           JUNCTION      0.00     0.00     0  00:00           0           0       0.000 ltr
  WS02000136           JUNCTION      0.00     0.00     0  00:00           0           0       0.000 ltr
  WS02004053           JUNCTION      0.00     0.00     0  00:00           0           0       0.000 ltr
  WS02004401           JUNCTION      0.05    22.08     0  02:36      0.0086        1.39       2.082
  WS02005192           JUNCTION      8.57     8.57     0  02:22       0.496       0.496       0.515
  WS02005193           JUNCTION      0.09     8.75     0  02:22       0.014       0.523       1.400
  WS02005196           JUNCTION      0.12     8.67     0  02:22      0.0183       0.512       1.305
  WS02006109           JUNCTION      0.08    13.99     0  03:00      0.0129        1.01       2.430
  WS02006110           JUNCTION      0.08    14.06     0  03:00      0.0126           1       2.488
  WS02006111           JUNCTION      0.24    21.59     0  02:36      0.0352        1.43       1.450
  WS02006112           JUNCTION      0.18    21.74     0  02:36      0.0263        1.44       2.300
  WS02006113           JUNCTION      8.76    21.38     0  02:36       0.513        1.46       1.641
  WS02006115           JUNCTION      0.08    21.82     0  02:36      0.0129        1.42       2.703
  WS02006116           JUNCTION      0.24    22.03     0  02:35      0.0347        1.42       2.464
  WS02006183           JUNCTION      0.00     0.00     0  00:00           0           0       0.000 ltr
  WS02006228           JUNCTION     17.15    17.15     0  03:00        1.07        1.22       1.475
  WS02006229           JUNCTION      0.13     6.95     0  01:51      0.0193       0.386       4.264
  WS02006230           JUNCTION      0.07     6.96     0  01:51      0.0111       0.397       6.890
  WS02006231           JUNCTION      0.13     5.95     0  01:50      0.0197       0.405       3.836
  WS02006232           JUNCTION      6.13     8.33     0  02:43       0.356       0.737       2.109
  WS02006234           JUNCTION      0.14     8.46     0  02:43      0.0208       0.727       1.917
  WS02006235           JUNCTION      0.14     8.59     0  02:43      0.0215       0.724       1.081
  WS02006238           JUNCTION      0.15     8.72     0  02:43      0.0226       0.727       1.391
  WS02006239           JUNCTION      0.11     8.82     0  02:43      0.0167       0.726       2.131
  WS02006242           JUNCTION      0.08     8.96     0  02:43      0.0124        0.73       2.556
  WS02006240           JUNCTION      0.06     8.88     0  02:43     0.00952       0.724       2.312
  WS02006243           JUNCTION      0.17     9.11     0  02:43      0.0259       0.741       2.375
  WS02006245           JUNCTION      0.07     9.18     0  02:43      0.0109       0.732       1.827
  WS02006247           JUNCTION      6.77    15.73     0  03:00       0.451        1.15       0.998
  WS02006248           JUNCTION      0.12    26.33     0  02:33      0.0185        1.76       0.608
  WS02006249           JUNCTION      0.19    11.74     0  02:22      0.0275       0.746       1.978
  WS02006251           JUNCTION      2.78    11.59     0  02:23       0.181       0.722       2.036
  WS02006253           JUNCTION      0.11     8.84     0  02:22      0.0166        0.54       1.377
  WS02618401           JUNCTION      0.00     0.00     0  00:00           0           0       0.000 ltr
  WSA1649              JUNCTION      0.00     0.00     0  00:00           0           0       0.000 ltr
  outfall-5            OUTFALL       0.00    26.33     0  02:33           0        1.64       0.000
  outfall-14           OUTFALL       0.00    22.08     0  02:36           0        1.36       0.000
  outfall-16           OUTFALL       0.00     0.00     0  00:00           0           0       0.000 ltr
  CC-storage           STORAGE      26.72    26.72     0  02:25        1.71        1.71       0.003
  
  
  **********************
  Node Surcharge Summary
  **********************
  
  Surcharging occurs when water rises above the top of the highest conduit.
  ---------------------------------------------------------------------
                                               Max. Height   Min. Depth
                                   Hours       Above Crown    Below Rim
  Node                 Type      Surcharged         Meters       Meters
  ---------------------------------------------------------------------
  WS01000070           JUNCTION        3.83          0.000        0.000
  WS01000323           JUNCTION        3.83          0.000        0.000
  WS01000533           JUNCTION        3.83          0.000        2.147
  WS01005172           JUNCTION        3.83          0.000        0.000
  WS01005181           JUNCTION        3.83          0.000        0.000
  WS01009841           JUNCTION        3.83          0.000        0.000
  WS02000078           JUNCTION        3.83          0.000        0.000
  WS02000112           JUNCTION        3.83          0.000        0.000
  WS02000136           JUNCTION        3.83          0.000        0.000
  WS02004053           JUNCTION        3.83          0.000        0.000
  WS02006109           JUNCTION        2.26          0.960        0.878
  WS02006110           JUNCTION        2.27          0.976        0.869
  WS02006111           JUNCTION        2.28          0.982        0.895
  WS02006112           JUNCTION        2.46          1.236        0.447
  WS02006113           JUNCTION        2.27          0.982        0.951
  WS02006115           JUNCTION        2.47          1.252        1.047
  WS02006116           JUNCTION        2.55          1.310        1.040
  WS02006183           JUNCTION        3.83          0.000        0.000
  WS02006228           JUNCTION        2.25          0.934        1.297
  WS02006229           JUNCTION        2.23          0.894        1.560
  WS02006231           JUNCTION        2.18          0.783        0.760
  WS02006232           JUNCTION        2.13          0.652        0.837
  WS02006234           JUNCTION        2.08          0.520        0.737
  WS02006235           JUNCTION        2.08          0.508        0.786
  WS02006238           JUNCTION        2.07          0.497        0.937
  WS02006239           JUNCTION        2.06          0.464        0.865
  WS02006242           JUNCTION        2.02          0.368        0.481
  WS02006240           JUNCTION        2.02          0.382        1.021
  WS02006243           JUNCTION        1.99          0.245        0.535
  WS02006245           JUNCTION        1.97          0.172        0.683
  WS02006247           JUNCTION        1.97          0.150        0.610
  WS02006249           JUNCTION        1.91          0.055        0.333
  WS02618401           JUNCTION        3.83          0.000        0.000
  WSA1649              JUNCTION        3.83          0.000        0.000
  
  
  *********************
  Node Flooding Summary
  *********************
  
  Flooding refers to all water that overflows a node, whether it ponds or not.
  --------------------------------------------------------------------------
                                                             Total   Maximum
                                 Maximum   Time of Max       Flood    Ponded
                        Hours       Rate    Occurrence      Volume     Depth
  Node                 Flooded       MLD   days hr:min    10^6 ltr    Meters
  --------------------------------------------------------------------------
  CC-storage              2.29     26.72      0  02:25       1.549     0.000
  
  
  **********************
  Storage Volume Summary
  **********************
  
  --------------------------------------------------------------------------------------------------
                         Average     Avg  Evap Exfil       Maximum     Max    Time of Max    Maximum
                          Volume    Pcnt  Pcnt  Pcnt        Volume    Pcnt     Occurrence    Outflow
  Storage Unit           1000 m3    Full  Loss  Loss       1000 m3    Full    days hr:min        MLD
  --------------------------------------------------------------------------------------------------
  CC-storage               0.152      95     0     0         0.159     100       0  01:32       0.00
  
  
  ***********************
  Outfall Loading Summary
  ***********************
  
  ---------------------------------------------------------------------------------------------------------------------------------
                         Flow       Avg       Max       Total         Total         Total         Total         Total         Total
                         Freq      Flow      Flow      Volume           COD         NH3-N            TN            TP            SS
  Outfall Node           Pcnt       MLD       MLD    10^6 ltr            kg            kg            kg            kg            kg
  ---------------------------------------------------------------------------------------------------------------------------------
  outfall-5             89.05     20.43     26.33       1.637       307.170         0.000         0.000         0.000         0.000
  outfall-14            89.09     16.94     22.08       1.355       275.349         0.000         0.000         0.000         0.000
  outfall-16             0.00      0.00      0.00       0.000         0.000         0.000         0.000         0.000         0.000
  ---------------------------------------------------------------------------------------------------------------------------------
  System                59.38     37.37     48.40       2.993       582.519         0.000         0.000         0.000         0.000
  
  
  ********************
  Link Flow Summary
  ********************
  
  -----------------------------------------------------------------------------
                                 Maximum  Time of Max   Maximum    Max/    Max/
                                  |Flow|   Occurrence   |Veloc|    Full    Full
  Link                 Type          MLD  days hr:min     m/sec    Flow   Depth
  -----------------------------------------------------------------------------
  WSL2038              CONDUIT      8.56     0  02:22      0.62    0.43    0.86
  WSL2039              CONDUIT      8.74     0  02:22      0.92    0.45    0.92
  WSL2041              CONDUIT      8.66     0  02:22      0.69    0.43    0.89
  WSL2294              CONDUIT     13.99     0  03:00      0.43    0.47    1.00
  WSL2295              CONDUIT     14.06     0  03:00      0.50    0.63    1.00
  WSL2296              CONDUIT     21.59     0  02:36      0.63    0.12    1.00
  WSL2297              CONDUIT     21.74     0  02:36      0.34    0.42    1.00
  WSL2298              CONDUIT     21.38     0  02:36      0.87    0.98    1.00
  WSL2301              CONDUIT     21.82     0  02:35      0.32    0.20    1.00
  WSL2302              CONDUIT     22.03     0  02:36      0.32    0.27    1.00
  WSL2441              CONDUIT     13.92     0  03:00      0.44    0.36    1.00
  WSL2442              CONDUIT      6.89     0  01:51      0.63    0.18    1.00
  WSL2443              CONDUIT      5.82     0  01:50      0.73    0.09    1.00
  WSL2444              CONDUIT      5.91     0  01:50      0.92    0.09    1.00
  WSL2446              CONDUIT      8.33     0  02:43      0.87    0.14    1.00
  WSL2447              CONDUIT      8.46     0  02:43      0.79    0.44    1.00
  WSL2448              CONDUIT      8.59     0  02:43      0.65    0.24    1.00
  WSL2449              CONDUIT      8.72     0  02:43      0.63    0.30    1.00
  WSL2450              CONDUIT      8.82     0  02:43      0.72    0.18    1.00
  WSL2451              CONDUIT      8.88     0  02:43      0.71    0.58    1.00
  WSL2452              CONDUIT      8.96     0  02:43      0.74    0.17    1.00
  WSL2454              CONDUIT      9.11     0  02:43      0.89    0.21    1.00
  WSL2478              CONDUIT      9.18     0  02:43      0.78    0.32    1.00
  WSL2479              CONDUIT     15.73     0  03:00      0.68    0.30    1.00
  WSL2480              CONDUIT     11.74     0  02:23      0.76    0.54    1.00
  WSL2482              CONDUIT     11.58     0  02:22      0.68    0.30    0.99
  WSL2484              CONDUIT      8.83     0  02:22      0.77    0.12    0.89
  WSL2493              CONDUIT      6.82     0  01:51      0.51    0.11    1.00
  8                    CONDUIT     26.33     0  02:33      6.34    0.35    0.41
  19                   CONDUIT      0.00     0  00:00      0.00    0.00    0.00
  17                   CONDUIT     22.08     0  02:36      6.12    0.29    0.37
  CC-Pump-1            PUMP         0.00     0  00:00              0.00
  CC-Pump-2            PUMP         0.00     0  00:00              0.00
  
  
  ***************************
  Flow Classification Summary
  ***************************
  
  -------------------------------------------------------------------------------------
                      Adjusted    ---------- Fraction of Time in Flow Class ---------- 
                       /Actual         Up    Down  Sub   Sup   Up    Down  Norm  Inlet 
  Conduit               Length    Dry  Dry   Dry   Crit  Crit  Crit  Crit  Ltd   Ctrl  
  -------------------------------------------------------------------------------------
  WSL2038                 1.00   0.00  0.00  0.00  1.00  0.00  0.00  0.00  0.01  0.00
  WSL2039                 1.00   0.00  0.00  0.00  0.98  0.02  0.00  0.00  0.00  0.00
  WSL2041                 1.00   0.00  0.00  0.00  1.00  0.00  0.00  0.00  0.30  0.00
  WSL2294                 1.00   0.00  0.00  0.00  1.00  0.00  0.00  0.00  0.00  0.00
  WSL2295                 1.00   0.00  0.00  0.00  1.00  0.00  0.00  0.00  0.00  0.00
  WSL2296                 1.00   0.00  0.00  0.00  1.00  0.00  0.00  0.00  0.17  0.00
  WSL2297                 1.00   0.00  0.00  0.00  1.00  0.00  0.00  0.00  0.00  0.00
  WSL2298                 1.00   0.00  0.00  0.00  0.98  0.02  0.00  0.00  0.00  0.00
  WSL2301                 1.00   0.00  0.00  0.00  1.00  0.00  0.00  0.00  0.04  0.00
  WSL2302                 1.00   0.00  0.00  0.00  1.00  0.00  0.00  0.00  0.01  0.00
  WSL2441                 1.00   0.00  0.00  0.00  1.00  0.00  0.00  0.00  0.00  0.00
  WSL2442                 1.00   0.00  0.00  0.00  1.00  0.00  0.00  0.00  0.17  0.00
  WSL2443                 1.00   0.00  0.00  0.00  1.00  0.00  0.00  0.00  0.31  0.00
  WSL2444                 1.00   0.00  0.00  0.00  0.94  0.06  0.00  0.00  0.23  0.00
  WSL2446                 1.00   0.00  0.00  0.00  0.95  0.05  0.00  0.00  0.02  0.00
  WSL2447                 1.00   0.00  0.00  0.00  1.00  0.00  0.00  0.00  0.00  0.00
  WSL2448                 1.00   0.00  0.00  0.00  1.00  0.00  0.00  0.00  0.00  0.00
  WSL2449                 1.00   0.00  0.00  0.00  1.00  0.00  0.00  0.00  0.03  0.00
  WSL2450                 1.00   0.00  0.00  0.00  1.00  0.00  0.00  0.00  0.41  0.00
  WSL2451                 1.00   0.00  0.00  0.00  1.00  0.00  0.00  0.00  0.00  0.00
  WSL2452                 1.00   0.00  0.00  0.00  1.00  0.00  0.00  0.00  0.41  0.00
  WSL2454                 1.00   0.00  0.00  0.00  1.00  0.00  0.00  0.00  0.02  0.00
  WSL2478                 1.00   0.00  0.00  0.00  1.00  0.00  0.00  0.00  0.00  0.00
  WSL2479                 1.00   0.00  0.00  0.00  1.00  0.00  0.00  0.00  0.44  0.00
  WSL2480                 1.00   0.00  0.00  0.00  1.00  0.00  0.00  0.00  0.00  0.00
  WSL2482                 1.00   0.00  0.00  0.00  1.00  0.00  0.00  0.00  0.43  0.00
  WSL2484                 1.00   0.00  0.00  0.00  1.00  0.00  0.00  0.00  0.45  0.00
  WSL2493                 1.00   0.00  0.00  0.00  1.00  0.00  0.00  0.00  0.05  0.00
  8                       1.00   0.11  0.00  0.00  0.00  0.89  0.00  0.00  0.01  0.00
  19                      1.00   1.00  0.00  0.00  0.00  0.00  0.00  0.00  0.00  0.00
  17                      1.00   0.11  0.00  0.00  0.00  0.89  0.00  0.00  0.00  0.00
  
  
  *************************
  Conduit Surcharge Summary
  *************************
  
  ----------------------------------------------------------------------------
                                                           Hours        Hours 
                         --------- Hours Full --------   Above Full   Capacity
  Conduit                Both Ends  Upstream  Dnstream   Normal Flow   Limited
  ----------------------------------------------------------------------------
  WSL2294                     2.26      2.26      2.27      0.01         0.01
  WSL2295                     2.27      2.27      2.27      0.01         0.01
  WSL2296                     2.28      2.28      2.74      0.01         0.01
  WSL2297                     2.46      2.46      2.47      0.01         0.01
  WSL2298                     2.27      2.27      2.28      0.01         0.01
  WSL2301                     2.47      2.47      2.55      0.01         0.01
  WSL2302                     2.55      2.55      2.60      0.01         0.01
  WSL2441                     2.25      2.25      2.26      0.01         0.01
  WSL2442                     2.25      2.25      2.27      0.01         0.01
  WSL2443                     2.18      2.18      2.25      0.01         0.01
  WSL2444                     2.13      2.13      2.18      0.01         0.01
  WSL2446                     2.08      2.08      2.13      0.01         0.01
  WSL2447                     2.08      2.08      2.08      0.01         0.01
  WSL2448                     2.07      2.07      2.08      0.01         0.01
  WSL2449                     2.06      2.06      2.07      0.01         0.01
  WSL2450                     2.02      2.02      2.06      0.01         0.01
  WSL2451                     2.02      2.02      2.02      0.01         0.01
  WSL2452                     1.99      1.99      2.02      0.01         0.01
  WSL2454                     1.97      1.97      1.99      0.01         0.01
  WSL2478                     1.97      1.97      1.97      0.01         0.01
  WSL2479                     1.94      1.94      1.97      0.01         0.01
  WSL2480                     1.90      1.90      1.94      0.01         0.01
  WSL2482                     0.01      0.01      1.90      0.01         0.01
  WSL2493                     2.23      2.23      2.25      0.01         0.01
  
  
  ***************
  Pumping Summary
  ***************
  
  ---------------------------------------------------------------------------------------------------------
                                                  Min       Avg       Max     Total     Power    % Time Off
                        Percent   Number of      Flow      Flow      Flow    Volume     Usage    Pump Curve
  Pump                 Utilized   Start-Ups       MLD       MLD       MLD  10^6 ltr     Kw-hr    Low   High
  ---------------------------------------------------------------------------------------------------------
  CC-Pump-1                0.00           0      0.00      0.00      0.00     0.000      0.00    0.0    0.0
  CC-Pump-2                0.00           0      0.00      0.00      0.00     0.000      0.00    0.0    0.0
  
  
  ***************************
  Link Pollutant Load Summary
  ***************************
  
  ------------------------------------------------------------------------------------------
                                 COD         NH3-N            TN            TP            SS
  Link                            kg            kg            kg            kg            kg
  ------------------------------------------------------------------------------------------
  WSL2038                    108.789         0.000         0.000         0.000         0.000
  WSL2039                    114.276         0.000         0.000         0.000         0.000
  WSL2041                    111.559         0.000         0.000         0.000         0.000
  WSL2294                    297.936         0.000         0.000         0.000         0.000
  WSL2295                    289.635         0.000         0.000         0.000         0.000
  WSL2296                    289.164         0.000         0.000         0.000         0.000
  WSL2297                    286.140         0.000         0.000         0.000         0.000
  WSL2298                    286.435         0.000         0.000         0.000         0.000
  WSL2301                    282.536         0.000         0.000         0.000         0.000
  WSL2302                    280.691         0.000         0.000         0.000         0.000
  WSL2441                    305.394         0.000         0.000         0.000         0.000
  WSL2442                     97.570         0.000         0.000         0.000         0.000
  WSL2443                     94.399         0.000         0.000         0.000         0.000
  WSL2444                     92.812         0.000         0.000         0.000         0.000
  WSL2446                     91.732         0.000         0.000         0.000         0.000
  WSL2447                     90.963         0.000         0.000         0.000         0.000
  WSL2448                     90.914         0.000         0.000         0.000         0.000
  WSL2449                     89.867         0.000         0.000         0.000         0.000
  WSL2450                     88.693         0.000         0.000         0.000         0.000
  WSL2451                     87.530         0.000         0.000         0.000         0.000
  WSL2452                     86.842         0.000         0.000         0.000         0.000
  WSL2454                     85.931         0.000         0.000         0.000         0.000
  WSL2478                     85.114         0.000         0.000         0.000         0.000
  WSL2479                    164.477         0.000         0.000         0.000         0.000
  WSL2480                    171.546         0.000         0.000         0.000         0.000
  WSL2482                    167.554         0.000         0.000         0.000         0.000
  WSL2484                    117.969         0.000         0.000         0.000         0.000
  WSL2493                     98.078         0.000         0.000         0.000         0.000
  8                          307.170         0.000         0.000         0.000         0.000
  19                           0.000         0.000         0.000         0.000         0.000
  17                         275.349         0.000         0.000         0.000         0.000
  CC-Pump-1                    0.000         0.000         0.000         0.000         0.000
  CC-Pump-2                    0.000         0.000         0.000         0.000         0.000
  

  Analysis begun on:  Thu Aug 15 17:32:52 2019
  Analysis ended on:  Thu Aug 15 17:32:52 2019
  Total elapsed time: < 1 sec