
  EPA STORM WATER MANAGEMENT MODEL - VERSION 5.1 (Build 5.2.0.dev5)
  --------------------------------------------------------------

  
  *********************************************************
  NOTE: The summary statistics displayed in this report are
  based on results found at every computational time step,  
  not just on results from each reporting time step.
  *********************************************************
  
  ****************
  Analysis Options
  ****************
  Flow Units ............... MLD
  Process Models:
    Rainfall/Runoff ........ YES
    RDII ................... NO
    Snowmelt ............... NO
    Groundwater ............ NO
    Flow Routing ........... YES
    Ponding Allowed ........ NO
    Water Quality .......... YES
  Infiltration Method ...... GREEN_AMPT
  Flow Routing Method ...... DYNWAVE
  Surcharge Method ......... EXTRAN
  Starting Date ............ 08/28/2015 08:00:00
  Ending Date .............. 08/28/2015 11:50:00
  Antecedent Dry Days ...... 4.0
  Report Time Step ......... 00:01:00
  Wet Time Step ............ 00:01:00
  Dry Time Step ............ 00:01:00
  Routing Time Step ........ 5.00 sec
  Variable Time Step ....... YES
  Maximum Trials ........... 8
  Number of Threads ........ 1
  Head Tolerance ........... 0.001500 m
  
  
  **************************        Volume         Depth
  Runoff Quantity Continuity     hectare-m            mm
  **************************     ---------       -------
  Total Precipitation ......         1.967        31.793
  Evaporation Loss .........         0.000         0.000
  Infiltration Loss ........         0.611         9.881
  Surface Runoff ...........         0.541         8.747
  Final Storage ............         0.814        13.166
  Continuity Error (%) .....        -0.005
  
  
  **************************           COD         NH3-N            TN            TP            SS
  Runoff Quality Continuity             kg            kg            kg            kg            kg
  **************************    ----------    ----------    ----------    ----------    ----------
  Initial Buildup ..........      2504.640         0.000         0.000         0.000         0.000
  Surface Buildup ..........        19.335         0.000         0.000         0.000         0.000
  Wet Deposition ...........         0.000         0.000         0.000         0.000         0.000
  Sweeping Removal .........         0.000         0.000         0.000         0.000         0.000
  Infiltration Loss ........       159.638         0.000         0.000         0.000         0.000
  BMP Removal ..............         0.000         0.000         0.000         0.000         0.000
  Surface Runoff ...........      1103.234         0.000         0.000         0.000         0.000
  Remaining Buildup ........      1259.960         0.000         0.000         0.000         0.000
  Continuity Error (%) .....         0.045         0.000         0.000         0.000         0.000
  
  
  **************************        Volume        Volume
  Flow Routing Continuity        hectare-m      10^6 ltr
  **************************     ---------     ---------
  Dry Weather Inflow .......         0.000         0.000
  Wet Weather Inflow .......         0.539         5.395
  Groundwater Inflow .......         0.000         0.000
  RDII Inflow ..............         0.000         0.000
  External Inflow ..........         0.082         0.822
  External Outflow .........         0.368         3.684
  Flooding Loss ............         0.187         1.872
  Evaporation Loss .........         0.000         0.000
  Exfiltration Loss ........         0.000         0.000
  Initial Stored Volume ....         0.000         0.000
  Final Stored Volume ......         0.062         0.624
  Continuity Error (%) .....         0.604
  
  
  **************************           COD         NH3-N            TN            TP            SS
  Quality Routing Continuity            kg            kg            kg            kg            kg
  **************************    ----------    ----------    ----------    ----------    ----------
  Dry Weather Inflow .......         0.000         0.000         0.000         0.000         0.000
  Wet Weather Inflow .......      1101.240         0.000         0.000         0.000         0.000
  Groundwater Inflow .......         0.000         0.000         0.000         0.000         0.000
  RDII Inflow ..............         0.000         0.000         0.000         0.000         0.000
  External Inflow ..........       137.264         0.000         0.000         0.000         0.000
  External Outflow .........       696.753         0.000         0.000         0.000         0.000
  Flooding Loss ............       433.014         0.000         0.000         0.000         0.000
  Exfiltration Loss ........         0.000         0.000         0.000         0.000         0.000
  Mass Reacted .............         0.000         0.000         0.000         0.000         0.000
  Initial Stored Mass ......         0.000         0.000         0.000         0.000         0.000
  Final Stored Mass ........       100.939         0.000         0.000         0.000         0.000
  Continuity Error (%) .....         0.630         0.000         0.000         0.000         0.000
  
  
  *************************
  Highest Continuity Errors
  *************************
  Node WS02006230 (5.92%)
  Node WS02006229 (3.70%)
  Node WS02006231 (3.32%)
  Node WS02006115 (2.16%)
  Node WS02006242 (2.13%)
  
  
  ***************************
  Time-Step Critical Elements
  ***************************
  Link 8 (89.43%)
  Link WSL2448 (8.53%)
  
  
  ********************************
  Highest Flow Instability Indexes
  ********************************
  Link WSL2302 (3)
  Link WSL2301 (2)
  Link WSL2297 (2)
  Link WSL2296 (2)
  Link WSL2298 (1)
  
  
  *************************
  Routing Time Step Summary
  *************************
  Minimum Time Step           :     0.10 sec
  Average Time Step           :     0.93 sec
  Maximum Time Step           :     5.00 sec
  Percent in Steady State     :    -0.00
  Average Iterations per Step :     2.07
  Percent Not Converging      :     0.44
  
  
  ***************************
  Subcatchment Runoff Summary
  ***************************
  
  ------------------------------------------------------------------------------------------------------------------------------
                            Total      Total      Total      Total     Imperv       Perv      Total       Total     Peak  Runoff
                           Precip      Runon       Evap      Infil     Runoff     Runoff     Runoff      Runoff   Runoff   Coeff
  Subcatchment                 mm         mm         mm         mm         mm         mm         mm    10^6 ltr      MLD
  ------------------------------------------------------------------------------------------------------------------------------
  1                         31.79      47.33       0.00      11.84      18.85      24.99      43.84        0.53    11.93   0.554
  2                         31.79       0.00       0.00       9.31       7.68       4.97      12.64        0.43    11.34   0.398
  3                         31.79       0.00       0.00       9.40       7.60       4.25      11.85        0.60    15.83   0.373
  35                        31.79       0.00       0.00       9.29       7.70       5.16      12.86        0.39    10.41   0.404
  36                        31.79      26.14       0.00      11.50      13.45      10.09      23.55        1.39    32.06   0.406
  40                        31.79       6.82       0.00       9.96       9.20       6.39      15.59        0.61    15.52   0.404
  41                        31.79       0.00       0.00       9.17       7.76       6.03      13.79        0.27     7.27   0.434
  42                        31.79       0.00       0.00       9.22       7.74       5.71      13.45        0.31     8.28   0.423
  43                        31.79       0.00       0.00       8.59       7.88       9.80      17.68        0.06     1.85   0.556
  44                        31.79     390.02       0.00      18.52     103.39     243.47     346.86        1.28    27.17   0.822
  45                        31.79       0.00       0.00       8.98       7.82       7.39      15.21        0.16     4.36   0.478
  46                        31.79      22.15       0.00      10.87      12.86      12.87      25.73        0.55    13.39   0.477
  47                        31.79       0.00       0.00       9.01       7.81       7.22      15.04        0.17     4.63   0.473
  48                        31.79      10.53       0.00       9.97      10.23       9.99      20.21        0.32     8.26   0.478
  55                        31.79      15.82       0.00      10.07      11.57      14.26      25.83        0.21     5.57   0.543
  56                        31.79      24.21       0.00      11.00      13.35      13.58      26.93        0.58    13.88   0.481
  57                        31.79       0.00       0.00       9.40       7.61       4.28      11.89        0.59    15.58   0.374
  59                        31.79       0.00       0.00       8.91       7.84       7.85      15.68        0.13     3.70   0.493
  60                        31.79      34.18       0.00      10.86      16.06      25.05      41.11        0.21     5.37   0.623
  61                        31.79       0.00       0.00       9.60       7.24       2.53       9.76        1.76    44.01   0.307
  64                        31.79       0.00       0.00       9.03       7.81       7.05      14.86        0.18     4.93   0.467
  
  
  ****************************
  Subcatchment Washoff Summary
  ****************************
  
  ------------------------------------------------------------------------------------------
                                 COD         NH3-N            TN            TP            SS
  Subcatchment                    kg            kg            kg            kg            kg
  ------------------------------------------------------------------------------------------
  1                           91.910         0.000         0.000         0.000         0.000
  2                            0.000         0.000         0.000         0.000         0.000
  3                            0.000         0.000         0.000         0.000         0.000
  35                          95.196         0.000         0.000         0.000         0.000
  36                         431.669         0.000         0.000         0.000         0.000
  40                         169.774         0.000         0.000         0.000         0.000
  41                          65.434         0.000         0.000         0.000         0.000
  42                          75.009         0.000         0.000         0.000         0.000
  43                          14.746         0.000         0.000         0.000         0.000
  44                         405.405         0.000         0.000         0.000         0.000
  45                          37.930         0.000         0.000         0.000         0.000
  46                         157.368         0.000         0.000         0.000         0.000
  47                          40.490         0.000         0.000         0.000         0.000
  48                          86.938         0.000         0.000         0.000         0.000
  55                          55.519         0.000         0.000         0.000         0.000
  56                         159.708         0.000         0.000         0.000         0.000
  57                         144.044         0.000         0.000         0.000         0.000
  59                          31.703         0.000         0.000         0.000         0.000
  60                          52.862         0.000         0.000         0.000         0.000
  61                         406.356         0.000         0.000         0.000         0.000
  64                          43.330         0.000         0.000         0.000         0.000
  ------------------------------------------------------------------------------------------
  System                    2565.390         0.000         0.000         0.000         0.000
  
  
  ******************
  Node Depth Summary
  ******************
  
  ---------------------------------------------------------------------------------
                                 Average  Maximum  Maximum  Time of Max    Reported
                                   Depth    Depth      HGL   Occurrence   Max Depth
  Node                 Type       Meters   Meters   Meters  days hr:min      Meters
  ---------------------------------------------------------------------------------
  WS01000070           JUNCTION     0.00     0.00     0.00     0  00:00        0.00
  WS01000323           JUNCTION     0.00     0.00     0.00     0  00:00        0.00
  WS01000533           JUNCTION     0.00     0.00     6.86     0  00:00        0.00
  WS01005172           JUNCTION     0.00     0.00     0.00     0  00:00        0.00
  WS01005181           JUNCTION     0.00     0.00     0.00     0  00:00        0.00
  WS01009841           JUNCTION     0.00     0.00     0.00     0  00:00        0.00
  WS02000078           JUNCTION     0.00     0.00     0.00     0  00:00        0.00
  WS02000112           JUNCTION     0.00     0.00     0.00     0  00:00        0.00
  WS02000136           JUNCTION     0.00     0.00     0.00     0  00:00        0.00
  WS02004053           JUNCTION     0.00     0.00     0.00     0  00:00        0.00
  WS02004401           JUNCTION     2.20     2.40     8.40     0  03:01        2.40
  WS02005192           JUNCTION     0.45     0.65     8.52     0  03:01        0.65
  WS02005193           JUNCTION     0.49     0.66     8.48     0  03:01        0.66
  WS02005196           JUNCTION     0.47     0.65     8.50     0  03:01        0.65
  WS02006109           JUNCTION     1.62     1.91     8.53     0  03:01        1.90
  WS02006110           JUNCTION     1.64     1.91     8.51     0  03:01        1.91
  WS02006111           JUNCTION     1.64     1.88     8.46     0  03:01        1.88
  WS02006112           JUNCTION     2.08     2.32     8.44     0  03:01        2.32
  WS02006113           JUNCTION     1.64     1.91     8.50     0  03:01        1.91
  WS02006115           JUNCTION     2.10     2.33     8.43     0  03:01        2.32
  WS02006116           JUNCTION     2.16     2.38     8.42     0  03:01        2.38
  WS02006183           JUNCTION     0.00     0.00     0.00     0  00:00        0.00
  WS02006228           JUNCTION     1.60     1.89     8.54     0  03:01        1.89
  WS02006229           JUNCTION     1.56     1.85     8.54     0  03:01        1.85
  WS02006230           JUNCTION     1.50     1.79     8.54     0  03:01        1.79
  WS02006231           JUNCTION     1.36     1.63     8.53     0  03:01        1.63
  WS02006232           JUNCTION     1.23     1.50     8.53     0  03:00        1.50
  WS02006234           JUNCTION     1.11     1.36     8.52     0  03:00        1.36
  WS02006235           JUNCTION     1.10     1.35     8.52     0  03:00        1.34
  WS02006238           JUNCTION     1.09     1.33     8.51     0  03:00        1.33
  WS02006239           JUNCTION     1.06     1.29     8.50     0  03:00        1.29
  WS02006242           JUNCTION     0.97     1.18     8.48     0  03:00        1.18
  WS02006240           JUNCTION     0.98     1.20     8.49     0  03:00        1.20
  WS02006243           JUNCTION     0.86     1.05     8.47     0  03:00        1.05
  WS02006245           JUNCTION     0.79     0.97     8.46     0  03:00        0.97
  WS02006247           JUNCTION     0.77     0.94     8.45     0  03:01        0.94
  WS02006248           JUNCTION     0.69     0.84     8.43     0  03:01        0.84
  WS02006249           JUNCTION     0.68     0.84     8.44     0  03:01        0.84
  WS02006251           JUNCTION     0.62     0.79     8.46     0  03:01        0.79
  WS02006253           JUNCTION     0.50     0.67     8.47     0  03:01        0.67
  WS02618401           JUNCTION     0.00     0.00     0.00     0  00:00        0.00
  WSA1649              JUNCTION     0.00     0.00     0.00     0  00:00        0.00
  outfall-5            OUTFALL      0.14     0.24     7.90     0  03:01        0.24
  outfall-14           OUTFALL      0.12     0.20     7.86     0  03:01        0.20
  outfall-16           OUTFALL      0.00     0.00     8.39     0  00:00        0.00
  CC-storage           STORAGE      5.37     5.63     8.81     0  01:30        5.63
  
  
  *******************
  Node Inflow Summary
  *******************
  
  -------------------------------------------------------------------------------------------------
                                  Maximum  Maximum                  Lateral       Total        Flow
                                  Lateral    Total  Time of Max      Inflow      Inflow     Balance
                                   Inflow   Inflow   Occurrence      Volume      Volume       Error
  Node                 Type           MLD      MLD  days hr:min    10^6 ltr    10^6 ltr     Percent
  -------------------------------------------------------------------------------------------------
  WS01000070           JUNCTION      0.00     0.00     0  00:00           0           0       0.000 ltr
  WS01000323           JUNCTION      0.00     0.00     0  00:00           0           0       0.000 ltr
  WS01000533           JUNCTION      0.00     0.00     0  00:00           0           0       0.000 ltr
  WS01005172           JUNCTION      0.00     0.00     0  00:00           0           0       0.000 ltr
  WS01005181           JUNCTION      0.00     0.00     0  00:00           0           0       0.000 ltr
  WS01009841           JUNCTION      0.00     0.00     0  00:00           0           0       0.000 ltr
  WS02000078           JUNCTION      0.00     0.00     0  00:00           0           0       0.000 ltr
  WS02000112           JUNCTION      0.00     0.00     0  00:00           0           0       0.000 ltr
  WS02000136           JUNCTION      0.00     0.00     0  00:00           0           0       0.000 ltr
  WS02004053           JUNCTION      0.00     0.00     0  00:00           0           0       0.000 ltr
  WS02004401           JUNCTION      0.05    39.88     0  03:01      0.0086         1.7       1.710
  WS02005192           JUNCTION     15.67    15.67     0  03:01        0.61        0.61       0.448
  WS02005193           JUNCTION      0.09    15.88     0  03:01       0.014       0.636       1.211
  WS02005196           JUNCTION      0.12    15.78     0  03:01      0.0183       0.626       1.134
  WS02006109           JUNCTION      0.08    23.82     0  03:01      0.0129        1.21       2.031
  WS02006110           JUNCTION      0.08    23.89     0  03:01      0.0126         1.2       2.076
  WS02006111           JUNCTION      0.24    39.39     0  03:01      0.0352        1.74       1.189
  WS02006112           JUNCTION      0.18    39.55     0  03:01      0.0263        1.75       1.884
  WS02006113           JUNCTION     15.98    39.19     0  03:01       0.628        1.77       1.348
  WS02006115           JUNCTION      0.08    39.63     0  03:01      0.0129        1.73       2.208
  WS02006116           JUNCTION      0.24    39.82     0  03:01      0.0347        1.73       2.014
  WS02006183           JUNCTION      0.00     0.00     0  00:00           0           0       0.000 ltr
  WS02006228           JUNCTION     27.33    27.33     0  03:04        1.31        1.46       1.241
  WS02006229           JUNCTION      0.13     6.65     0  01:49      0.0193       0.428       3.840
  WS02006230           JUNCTION      0.07     6.62     0  01:49      0.0111        0.44       6.292
  WS02006231           JUNCTION      0.13     6.05     0  01:48      0.0197       0.447       3.431
  WS02006232           JUNCTION     11.41    15.35     0  03:01       0.438       0.861       1.800
  WS02006234           JUNCTION      0.14    15.46     0  03:01      0.0208        0.85       1.632
  WS02006235           JUNCTION      0.14    15.59     0  03:01      0.0215       0.848       0.916
  WS02006238           JUNCTION      0.15    15.71     0  03:01      0.0226       0.851       1.170
  WS02006239           JUNCTION      0.11    15.81     0  03:01      0.0167       0.851       1.817
  WS02006242           JUNCTION      0.08    15.95     0  03:01      0.0124       0.856       2.181
  WS02006240           JUNCTION      0.06    15.87     0  03:01     0.00952       0.849       1.959
  WS02006243           JUNCTION      0.17    16.09     0  03:01      0.0259       0.866       2.022
  WS02006245           JUNCTION      0.07    16.16     0  03:01      0.0109       0.858       1.553
  WS02006247           JUNCTION     12.07    28.06     0  03:01       0.552        1.37       0.833
  WS02006248           JUNCTION      0.12    49.97     0  03:01      0.0185        2.14       0.510
  WS02006249           JUNCTION      0.19    21.81     0  03:01      0.0275         0.9       1.648
  WS02006251           JUNCTION      5.63    21.61     0  03:01       0.223       0.876       1.721
  WS02006253           JUNCTION      0.11    15.99     0  03:01      0.0166       0.652       1.196
  WS02618401           JUNCTION      0.00     0.00     0  00:00           0           0       0.000 ltr
  WSA1649              JUNCTION      0.00     0.00     0  00:00           0           0       0.000 ltr
  outfall-5            OUTFALL       0.00    49.99     0  03:01           0        2.02       0.000
  outfall-14           OUTFALL       0.00    39.87     0  03:01           0        1.67       0.000
  outfall-16           OUTFALL       0.00     0.00     0  00:00           0           0       0.000 ltr
  CC-storage           STORAGE      45.47    45.47     0  03:01        2.03        2.03       0.001
  
  
  **********************
  Node Surcharge Summary
  **********************
  
  Surcharging occurs when water rises above the top of the highest conduit.
  ---------------------------------------------------------------------
                                               Max. Height   Min. Depth
                                   Hours       Above Crown    Below Rim
  Node                 Type      Surcharged         Meters       Meters
  ---------------------------------------------------------------------
  WS01000070           JUNCTION        3.83          0.000        0.000
  WS01000323           JUNCTION        3.83          0.000        0.000
  WS01000533           JUNCTION        3.83          0.000        2.147
  WS01005172           JUNCTION        3.83          0.000        0.000
  WS01005181           JUNCTION        3.83          0.000        0.000
  WS01009841           JUNCTION        3.83          0.000        0.000
  WS02000078           JUNCTION        3.83          0.000        0.000
  WS02000112           JUNCTION        3.83          0.000        0.000
  WS02000136           JUNCTION        3.83          0.000        0.000
  WS02004053           JUNCTION        3.83          0.000        0.000
  WS02005192           JUNCTION        0.08          0.047        2.772
  WS02005193           JUNCTION        0.20          0.064        2.553
  WS02005196           JUNCTION        0.12          0.054        2.652
  WS02006109           JUNCTION        2.29          1.105        0.733
  WS02006110           JUNCTION        2.29          1.111        0.734
  WS02006111           JUNCTION        2.31          1.083        0.794
  WS02006112           JUNCTION        2.47          1.319        0.364
  WS02006113           JUNCTION        2.31          1.109        0.824
  WS02006115           JUNCTION        2.49          1.325        0.974
  WS02006116           JUNCTION        2.55          1.376        0.974
  WS02006183           JUNCTION        3.83          0.000        0.000
  WS02006228           JUNCTION        2.28          1.087        1.144
  WS02006229           JUNCTION        2.27          1.047        1.407
  WS02006231           JUNCTION        2.21          0.934        0.609
  WS02006232           JUNCTION        2.16          0.803        0.686
  WS02006234           JUNCTION        2.12          0.664        0.593
  WS02006235           JUNCTION        2.11          0.647        0.647
  WS02006238           JUNCTION        2.11          0.635        0.799
  WS02006239           JUNCTION        2.09          0.595        0.734
  WS02006242           JUNCTION        2.05          0.483        0.366
  WS02006240           JUNCTION        2.06          0.505        0.898
  WS02006243           JUNCTION        2.03          0.350        0.430
  WS02006245           JUNCTION        2.00          0.268        0.587
  WS02006247           JUNCTION        1.99          0.241        0.519
  WS02006249           JUNCTION        1.78          0.139        0.249
  WS02006251           JUNCTION        0.56          0.093        1.417
  WS02618401           JUNCTION        3.83          0.000        0.000
  WSA1649              JUNCTION        3.83          0.000        0.000
  
  
  *********************
  Node Flooding Summary
  *********************
  
  Flooding refers to all water that overflows a node, whether it ponds or not.
  --------------------------------------------------------------------------
                                                             Total   Maximum
                                 Maximum   Time of Max       Flood    Ponded
                        Hours       Rate    Occurrence      Volume     Depth
  Node                 Flooded       MLD   days hr:min    10^6 ltr    Meters
  --------------------------------------------------------------------------
  CC-storage              2.32     45.46      0  03:01       1.872     0.000
  
  
  **********************
  Storage Volume Summary
  **********************
  
  --------------------------------------------------------------------------------------------------
                         Average     Avg  Evap Exfil       Maximum     Max    Time of Max    Maximum
                          Volume    Pcnt  Pcnt  Pcnt        Volume    Pcnt     Occurrence    Outflow
  Storage Unit           1000 m3    Full  Loss  Loss       1000 m3    Full    days hr:min        MLD
  --------------------------------------------------------------------------------------------------
  CC-storage               0.152      95     0     0         0.159     100       0  01:30       0.00
  
  
  ***********************
  Outfall Loading Summary
  ***********************
  
  ---------------------------------------------------------------------------------------------------------------------------------
                         Flow       Avg       Max       Total         Total         Total         Total         Total         Total
                         Freq      Flow      Flow      Volume           COD         NH3-N            TN            TP            SS
  Outfall Node           Pcnt       MLD       MLD    10^6 ltr            kg            kg            kg            kg            kg
  ---------------------------------------------------------------------------------------------------------------------------------
  outfall-5             89.64     25.01     49.99       2.017       374.121         0.000         0.000         0.000         0.000
  outfall-14            89.67     20.69     39.87       1.666       322.656         0.000         0.000         0.000         0.000
  outfall-16             0.00      0.00      0.00       0.000         0.000         0.000         0.000         0.000         0.000
  ---------------------------------------------------------------------------------------------------------------------------------
  System                59.77     45.69     89.85       3.683       696.777         0.000         0.000         0.000         0.000
  
  
  ********************
  Link Flow Summary
  ********************
  
  -----------------------------------------------------------------------------
                                 Maximum  Time of Max   Maximum    Max/    Max/
                                  |Flow|   Occurrence   |Veloc|    Full    Full
  Link                 Type          MLD  days hr:min     m/sec    Flow   Depth
  -----------------------------------------------------------------------------
  WSL2038              CONDUIT     15.67     0  03:01      0.64    0.78    1.00
  WSL2039              CONDUIT     15.90     0  03:01      0.92    0.82    1.00
  WSL2041              CONDUIT     15.80     0  03:01      0.68    0.78    1.00
  WSL2294              CONDUIT     23.82     0  03:01      0.55    0.80    1.00
  WSL2295              CONDUIT     23.89     0  03:01      0.55    1.07    1.00
  WSL2296              CONDUIT     39.40     0  03:01      0.91    0.22    1.00
  WSL2297              CONDUIT     39.55     0  03:01      0.58    0.76    1.00
  WSL2298              CONDUIT     39.20     0  03:01      0.90    1.80    1.00
  WSL2301              CONDUIT     39.63     0  03:01      0.58    0.37    1.00
  WSL2302              CONDUIT     39.83     0  03:01      0.59    0.49    1.00
  WSL2441              CONDUIT     23.74     0  03:01      0.55    0.61    1.00
  WSL2442              CONDUIT      6.55     0  01:49      0.63    0.17    1.00
  WSL2443              CONDUIT      5.92     0  01:48      0.73    0.09    1.00
  WSL2444              CONDUIT      5.99     0  01:48      0.93    0.10    1.00
  WSL2446              CONDUIT     15.35     0  03:01      0.89    0.26    1.00
  WSL2447              CONDUIT     15.46     0  03:01      0.81    0.80    1.00
  WSL2448              CONDUIT     15.58     0  03:01      0.67    0.44    1.00
  WSL2449              CONDUIT     15.71     0  03:01      0.64    0.55    1.00
  WSL2450              CONDUIT     15.81     0  03:01      0.73    0.33    1.00
  WSL2451              CONDUIT     15.87     0  03:01      0.72    1.03    1.00
  WSL2452              CONDUIT     15.95     0  03:01      0.75    0.30    1.00
  WSL2454              CONDUIT     16.09     0  03:01      0.91    0.38    1.00
  WSL2478              CONDUIT     16.16     0  03:01      0.79    0.57    1.00
  WSL2479              CONDUIT     28.06     0  03:01      0.84    0.53    1.00
  WSL2480              CONDUIT     21.81     0  03:01      0.77    1.01    1.00
  WSL2482              CONDUIT     21.65     0  03:01      0.68    0.56    1.00
  WSL2484              CONDUIT     16.13     0  03:01      0.77    0.23    0.98
  WSL2493              CONDUIT      6.52     0  01:49      0.51    0.11    1.00
  8                    CONDUIT     49.99     0  03:01      7.45    0.66    0.59
  19                   CONDUIT      0.00     0  00:00      0.00    0.00    0.00
  17                   CONDUIT     39.87     0  03:01      7.15    0.52    0.51
  CC-Pump-1            PUMP         0.00     0  00:00              0.00
  CC-Pump-2            PUMP         0.00     0  00:00              0.00
  
  
  ***************************
  Flow Classification Summary
  ***************************
  
  -------------------------------------------------------------------------------------
                      Adjusted    ---------- Fraction of Time in Flow Class ---------- 
                       /Actual         Up    Down  Sub   Sup   Up    Down  Norm  Inlet 
  Conduit               Length    Dry  Dry   Dry   Crit  Crit  Crit  Crit  Ltd   Ctrl  
  -------------------------------------------------------------------------------------
  WSL2038                 1.00   0.00  0.00  0.00  1.00  0.00  0.00  0.00  0.01  0.00
  WSL2039                 1.00   0.00  0.00  0.00  0.98  0.02  0.00  0.00  0.00  0.00
  WSL2041                 1.00   0.00  0.00  0.00  1.00  0.00  0.00  0.00  0.29  0.00
  WSL2294                 1.00   0.00  0.00  0.00  1.00  0.00  0.00  0.00  0.00  0.00
  WSL2295                 1.00   0.00  0.00  0.00  1.00  0.00  0.00  0.00  0.00  0.00
  WSL2296                 1.00   0.00  0.00  0.00  1.00  0.00  0.00  0.00  0.17  0.00
  WSL2297                 1.00   0.00  0.00  0.00  1.00  0.00  0.00  0.00  0.00  0.00
  WSL2298                 1.00   0.00  0.00  0.00  0.98  0.02  0.00  0.00  0.00  0.00
  WSL2301                 1.00   0.00  0.00  0.00  1.00  0.00  0.00  0.00  0.04  0.00
  WSL2302                 1.00   0.00  0.00  0.00  1.00  0.00  0.00  0.00  0.01  0.00
  WSL2441                 1.00   0.00  0.00  0.00  1.00  0.00  0.00  0.00  0.00  0.00
  WSL2442                 1.00   0.00  0.00  0.00  1.00  0.00  0.00  0.00  0.17  0.00
  WSL2443                 1.00   0.00  0.00  0.00  1.00  0.00  0.00  0.00  0.30  0.00
  WSL2444                 1.00   0.00  0.00  0.00  0.94  0.06  0.00  0.00  0.22  0.00
  WSL2446                 1.00   0.00  0.00  0.00  0.95  0.05  0.00  0.00  0.02  0.00
  WSL2447                 1.00   0.00  0.00  0.00  1.00  0.00  0.00  0.00  0.00  0.00
  WSL2448                 1.00   0.00  0.00  0.00  1.00  0.00  0.00  0.00  0.00  0.00
  WSL2449                 1.00   0.00  0.00  0.00  1.00  0.00  0.00  0.00  0.03  0.00
  WSL2450                 1.00   0.00  0.00  0.00  1.00  0.00  0.00  0.00  0.39  0.00
  WSL2451                 1.00   0.00  0.00  0.00  1.00  0.00  0.00  0.00  0.00  0.00
  WSL2452                 1.00   0.00  0.00  0.00  1.00  0.00  0.00  0.00  0.41  0.00
  WSL2454                 1.00   0.00  0.00  0.00  1.00  0.00  0.00  0.00  0.02  0.00
  WSL2478                 1.00   0.00  0.00  0.00  1.00  0.00  0.00  0.00  0.00  0.00
  WSL2479                 1.00   0.00  0.00  0.00  1.00  0.00  0.00  0.00  0.43  0.00
  WSL2480                 1.00   0.00  0.00  0.00  1.00  0.00  0.00  0.00  0.00  0.00
  WSL2482                 1.00   0.00  0.00  0.00  1.00  0.00  0.00  0.00  0.41  0.00
  WSL2484                 1.00   0.00  0.00  0.00  1.00  0.00  0.00  0.00  0.44  0.00
  WSL2493                 1.00   0.00  0.00  0.00  1.00  0.00  0.00  0.00  0.05  0.00
  8                       1.00   0.10  0.00  0.00  0.00  0.90  0.00  0.00  0.02  0.00
  19                      1.00   1.00  0.00  0.00  0.00  0.00  0.00  0.00  0.00  0.00
  17                      1.00   0.10  0.00  0.00  0.00  0.90  0.00  0.00  0.00  0.00
  
  
  *************************
  Conduit Surcharge Summary
  *************************
  
  ----------------------------------------------------------------------------
                                                           Hours        Hours 
                         --------- Hours Full --------   Above Full   Capacity
  Conduit                Both Ends  Upstream  Dnstream   Normal Flow   Limited
  ----------------------------------------------------------------------------
  WSL2038                     0.08      0.08      0.12      0.01         0.01
  WSL2039                     0.20      0.20      0.28      0.01         0.01
  WSL2041                     0.12      0.12      0.20      0.01         0.01
  WSL2294                     2.29      2.29      2.29      0.01         0.01
  WSL2295                     2.29      2.29      2.31      0.09         0.09
  WSL2296                     2.31      2.31      2.74      0.01         0.01
  WSL2297                     2.47      2.47      2.49      0.01         0.01
  WSL2298                     2.31      2.31      2.31      0.71         0.72
  WSL2301                     2.49      2.49      2.55      0.01         0.01
  WSL2302                     2.55      2.55      2.61      0.01         0.01
  WSL2441                     2.28      2.28      2.29      0.01         0.01
  WSL2442                     2.28      2.28      2.30      0.01         0.01
  WSL2443                     2.21      2.21      2.28      0.01         0.01
  WSL2444                     2.16      2.16      2.21      0.01         0.01
  WSL2446                     2.12      2.12      2.16      0.01         0.01
  WSL2447                     2.11      2.11      2.12      0.01         0.01
  WSL2448                     2.11      2.11      2.11      0.01         0.01
  WSL2449                     2.09      2.09      2.11      0.01         0.01
  WSL2450                     2.06      2.06      2.09      0.01         0.01
  WSL2451                     2.05      2.05      2.06      0.03         0.01
  WSL2452                     2.03      2.03      2.05      0.01         0.01
  WSL2454                     2.00      2.00      2.03      0.01         0.01
  WSL2478                     1.99      1.99      2.00      0.01         0.01
  WSL2479                     1.96      1.96      1.99      0.01         0.01
  WSL2480                     1.78      1.78      1.96      0.01         0.03
  WSL2482                     0.56      0.56      1.78      0.01         0.01
  WSL2484                     0.01      0.01      0.56      0.01         0.01
  WSL2493                     2.27      2.27      2.28      0.01         0.01
  
  
  ***************
  Pumping Summary
  ***************
  
  ---------------------------------------------------------------------------------------------------------
                                                  Min       Avg       Max     Total     Power    % Time Off
                        Percent   Number of      Flow      Flow      Flow    Volume     Usage    Pump Curve
  Pump                 Utilized   Start-Ups       MLD       MLD       MLD  10^6 ltr     Kw-hr    Low   High
  ---------------------------------------------------------------------------------------------------------
  CC-Pump-1                0.00           0      0.00      0.00      0.00     0.000      0.00    0.0    0.0
  CC-Pump-2                0.00           0      0.00      0.00      0.00     0.000      0.00    0.0    0.0
  
  
  ***************************
  Link Pollutant Load Summary
  ***************************
  
  ------------------------------------------------------------------------------------------
                                 COD         NH3-N            TN            TP            SS
  Link                            kg            kg            kg            kg            kg
  ------------------------------------------------------------------------------------------
  WSL2038                    146.909         0.000         0.000         0.000         0.000
  WSL2039                    152.281         0.000         0.000         0.000         0.000
  WSL2041                    149.645         0.000         0.000         0.000         0.000
  WSL2294                    340.769         0.000         0.000         0.000         0.000
  WSL2295                    332.963         0.000         0.000         0.000         0.000
  WSL2296                    333.517         0.000         0.000         0.000         0.000
  WSL2297                    331.691         0.000         0.000         0.000         0.000
  WSL2298                    330.435         0.000         0.000         0.000         0.000
  WSL2301                    328.771         0.000         0.000         0.000         0.000
  WSL2302                    327.966         0.000         0.000         0.000         0.000
  WSL2441                    348.051         0.000         0.000         0.000         0.000
  WSL2442                    106.059         0.000         0.000         0.000         0.000
  WSL2443                    103.203         0.000         0.000         0.000         0.000
  WSL2444                    102.066         0.000         0.000         0.000         0.000
  WSL2446                    101.484         0.000         0.000         0.000         0.000
  WSL2447                    101.086         0.000         0.000         0.000         0.000
  WSL2448                    101.155         0.000         0.000         0.000         0.000
  WSL2449                    100.566         0.000         0.000         0.000         0.000
  WSL2450                     99.816         0.000         0.000         0.000         0.000
  WSL2451                     99.071         0.000         0.000         0.000         0.000
  WSL2452                     98.791         0.000         0.000         0.000         0.000
  WSL2454                     98.244         0.000         0.000         0.000         0.000
  WSL2478                     97.584         0.000         0.000         0.000         0.000
  WSL2479                    187.507         0.000         0.000         0.000         0.000
  WSL2480                    215.987         0.000         0.000         0.000         0.000
  WSL2482                    211.931         0.000         0.000         0.000         0.000
  WSL2484                    155.847         0.000         0.000         0.000         0.000
  WSL2493                    106.078         0.000         0.000         0.000         0.000
  8                          374.121         0.000         0.000         0.000         0.000
  19                           0.000         0.000         0.000         0.000         0.000
  17                         322.656         0.000         0.000         0.000         0.000
  CC-Pump-1                    0.000         0.000         0.000         0.000         0.000
  CC-Pump-2                    0.000         0.000         0.000         0.000         0.000
  

  Analysis begun on:  Thu Aug 15 17:32:32 2019
  Analysis ended on:  Thu Aug 15 17:32:32 2019
  Total elapsed time: < 1 sec