
  EPA STORM WATER MANAGEMENT MODEL - VERSION 5.1 (Build 5.2.0.dev5)
  --------------------------------------------------------------

  
  *********************************************************
  NOTE: The summary statistics displayed in this report are
  based on results found at every computational time step,  
  not just on results from each reporting time step.
  *********************************************************
  
  ****************
  Analysis Options
  ****************
  Flow Units ............... MLD
  Process Models:
    Rainfall/Runoff ........ YES
    RDII ................... NO
    Snowmelt ............... NO
    Groundwater ............ NO
    Flow Routing ........... YES
    Ponding Allowed ........ NO
    Water Quality .......... YES
  Infiltration Method ...... GREEN_AMPT
  Flow Routing Method ...... DYNWAVE
  Surcharge Method ......... EXTRAN
  Starting Date ............ 08/28/2015 08:00:00
  Ending Date .............. 08/28/2015 11:50:00
  Antecedent Dry Days ...... 4.0
  Report Time Step ......... 00:01:00
  Wet Time Step ............ 00:01:00
  Dry Time Step ............ 00:01:00
  Routing Time Step ........ 5.00 sec
  Variable Time Step ....... YES
  Maximum Trials ........... 8
  Number of Threads ........ 1
  Head Tolerance ........... 0.001500 m
  
  
  **************************        Volume         Depth
  Runoff Quantity Continuity     hectare-m            mm
  **************************     ---------       -------
  Total Precipitation ......         1.344        21.731
  Evaporation Loss .........         0.000         0.000
  Infiltration Loss ........         0.514         8.309
  Surface Runoff ...........         0.309         4.991
  Final Storage ............         0.522         8.432
  Continuity Error (%) .....        -0.006
  
  
  **************************           COD         NH3-N            TN            TP            SS
  Runoff Quality Continuity             kg            kg            kg            kg            kg
  **************************    ----------    ----------    ----------    ----------    ----------
  Initial Buildup ..........      2504.640         0.000         0.000         0.000         0.000
  Surface Buildup ..........        19.717         0.000         0.000         0.000         0.000
  Wet Deposition ...........         0.000         0.000         0.000         0.000         0.000
  Sweeping Removal .........         0.000         0.000         0.000         0.000         0.000
  Infiltration Loss ........       107.926         0.000         0.000         0.000         0.000
  BMP Removal ..............         0.000         0.000         0.000         0.000         0.000
  Surface Runoff ...........       569.224         0.000         0.000         0.000         0.000
  Remaining Buildup ........      1844.865         0.000         0.000         0.000         0.000
  Continuity Error (%) .....         0.093         0.000         0.000         0.000         0.000
  
  
  **************************        Volume        Volume
  Flow Routing Continuity        hectare-m      10^6 ltr
  **************************     ---------     ---------
  Dry Weather Inflow .......         0.000         0.000
  Wet Weather Inflow .......         0.308         3.079
  Groundwater Inflow .......         0.000         0.000
  RDII Inflow ..............         0.000         0.000
  External Inflow ..........         0.082         0.822
  External Outflow .........         0.206         2.061
  Flooding Loss ............         0.118         1.178
  Evaporation Loss .........         0.000         0.000
  Exfiltration Loss ........         0.000         0.000
  Initial Stored Volume ....         0.000         0.000
  Final Stored Volume ......         0.062         0.622
  Continuity Error (%) .....         1.044
  
  
  **************************           COD         NH3-N            TN            TP            SS
  Quality Routing Continuity            kg            kg            kg            kg            kg
  **************************    ----------    ----------    ----------    ----------    ----------
  Dry Weather Inflow .......         0.000         0.000         0.000         0.000         0.000
  Wet Weather Inflow .......       567.806         0.000         0.000         0.000         0.000
  Groundwater Inflow .......         0.000         0.000         0.000         0.000         0.000
  RDII Inflow ..............         0.000         0.000         0.000         0.000         0.000
  External Inflow ..........       137.270         0.000         0.000         0.000         0.000
  External Outflow .........       353.423         0.000         0.000         0.000         0.000
  Flooding Loss ............       211.213         0.000         0.000         0.000         0.000
  Exfiltration Loss ........         0.000         0.000         0.000         0.000         0.000
  Mass Reacted .............         0.000         0.000         0.000         0.000         0.000
  Initial Stored Mass ......         0.000         0.000         0.000         0.000         0.000
  Final Stored Mass ........       132.872         0.000         0.000         0.000         0.000
  Continuity Error (%) .....         1.073         0.000         0.000         0.000         0.000
  
  
  *************************
  Highest Continuity Errors
  *************************
  Node WS02006230 (7.96%)
  Node WS02006229 (5.19%)
  Node WS02006231 (4.62%)
  Node WS02006115 (3.78%)
  Node WS02006116 (3.48%)
  
  
  ***************************
  Time-Step Critical Elements
  ***************************
  Link 8 (86.65%)
  Link WSL2448 (11.03%)
  
  
  ********************************
  Highest Flow Instability Indexes
  ********************************
  Link WSL2302 (3)
  Link WSL2301 (3)
  Link WSL2297 (2)
  Link WSL2296 (2)
  Link WSL2298 (2)
  
  
  *************************
  Routing Time Step Summary
  *************************
  Minimum Time Step           :     0.34 sec
  Average Time Step           :     1.09 sec
  Maximum Time Step           :     5.00 sec
  Percent in Steady State     :    -0.00
  Average Iterations per Step :     2.06
  Percent Not Converging      :     0.25
  
  
  ***************************
  Subcatchment Runoff Summary
  ***************************
  
  ------------------------------------------------------------------------------------------------------------------------------
                            Total      Total      Total      Total     Imperv       Perv      Total       Total     Peak  Runoff
                           Precip      Runon       Evap      Infil     Runoff     Runoff     Runoff      Runoff   Runoff   Coeff
  Subcatchment                 mm         mm         mm         mm         mm         mm         mm    10^6 ltr      MLD
  ------------------------------------------------------------------------------------------------------------------------------
  1                         21.73      25.72       0.00       9.79      11.23      11.38      22.60        0.27     6.31   0.476
  2                         21.73       0.00       0.00       7.90       5.18       2.27       7.45        0.25     6.72   0.343
  3                         21.73       0.00       0.00       7.95       5.11       1.91       7.03        0.36     9.43   0.323
  35                        21.73       0.00       0.00       7.89       5.20       2.36       7.56        0.23     6.16   0.348
  36                        21.73      14.84       0.00       9.46       8.38       4.45      12.83        0.76    17.79   0.351
  40                        21.73       3.99       0.00       8.37       6.06       2.90       8.95        0.35     9.00   0.348
  41                        21.73       0.00       0.00       7.82       5.25       2.81       8.06        0.16     4.29   0.371
  42                        21.73       0.00       0.00       7.85       5.23       2.64       7.88        0.18     4.89   0.362
  43                        21.73       0.00       0.00       7.49       5.37       4.91      10.28        0.04     1.09   0.473
  44                        21.73     213.30       0.00      15.34      57.35     124.02     181.38        0.67    14.26   0.772
  45                        21.73       0.00       0.00       7.72       5.31       3.53       8.84        0.09     2.57   0.407
  46                        21.73      12.60       0.00       9.07       8.12       5.90      14.02        0.30     7.42   0.408
  47                        21.73       0.00       0.00       7.73       5.31       3.44       8.75        0.10     2.73   0.402
  48                        21.73       6.12       0.00       8.43       6.69       4.68      11.37        0.18     4.71   0.408
  55                        21.73       9.19       0.00       8.55       7.48       6.88      14.36        0.12     3.15   0.465
  56                        21.73      13.82       0.00       9.16       8.40       6.23      14.63        0.31     7.67   0.412
  57                        21.73       0.00       0.00       7.94       5.12       1.93       7.05        0.35     9.27   0.324
  59                        21.73       0.00       0.00       7.68       5.33       3.78       9.11        0.08     2.18   0.419
  60                        21.73      19.89       0.00       9.22      10.10      12.49      22.59        0.12     2.99   0.543
  61                        21.73       0.00       0.00       8.05       4.80       1.10       5.90        1.06    26.51   0.271
  64                        21.73       0.00       0.00       7.74       5.30       3.35       8.65        0.10     2.90   0.398
  
  
  ****************************
  Subcatchment Washoff Summary
  ****************************
  
  ------------------------------------------------------------------------------------------
                                 COD         NH3-N            TN            TP            SS
  Subcatchment                    kg            kg            kg            kg            kg
  ------------------------------------------------------------------------------------------
  1                           47.503         0.000         0.000         0.000         0.000
  2                            0.000         0.000         0.000         0.000         0.000
  3                            0.000         0.000         0.000         0.000         0.000
  35                          47.102         0.000         0.000         0.000         0.000
  36                         258.984         0.000         0.000         0.000         0.000
  40                          88.236         0.000         0.000         0.000         0.000
  41                          33.397         0.000         0.000         0.000         0.000
  42                          37.825         0.000         0.000         0.000         0.000
  43                           8.960         0.000         0.000         0.000         0.000
  44                         228.870         0.000         0.000         0.000         0.000
  45                          20.477         0.000         0.000         0.000         0.000
  46                         100.230         0.000         0.000         0.000         0.000
  47                          21.698         0.000         0.000         0.000         0.000
  48                          51.531         0.000         0.000         0.000         0.000
  55                          36.916         0.000         0.000         0.000         0.000
  56                         104.839         0.000         0.000         0.000         0.000
  57                          69.356         0.000         0.000         0.000         0.000
  59                          17.477         0.000         0.000         0.000         0.000
  60                          35.743         0.000         0.000         0.000         0.000
  61                         186.578         0.000         0.000         0.000         0.000
  64                          23.048         0.000         0.000         0.000         0.000
  ------------------------------------------------------------------------------------------
  System                    1418.771         0.000         0.000         0.000         0.000
  
  
  ******************
  Node Depth Summary
  ******************
  
  ---------------------------------------------------------------------------------
                                 Average  Maximum  Maximum  Time of Max    Reported
                                   Depth    Depth      HGL   Occurrence   Max Depth
  Node                 Type       Meters   Meters   Meters  days hr:min      Meters
  ---------------------------------------------------------------------------------
  WS01000070           JUNCTION     0.00     0.00     0.00     0  00:00        0.00
  WS01000323           JUNCTION     0.00     0.00     0.00     0  00:00        0.00
  WS01000533           JUNCTION     0.00     0.00     6.86     0  00:00        0.00
  WS01005172           JUNCTION     0.00     0.00     0.00     0  00:00        0.00
  WS01005181           JUNCTION     0.00     0.00     0.00     0  00:00        0.00
  WS01009841           JUNCTION     0.00     0.00     0.00     0  00:00        0.00
  WS02000078           JUNCTION     0.00     0.00     0.00     0  00:00        0.00
  WS02000112           JUNCTION     0.00     0.00     0.00     0  00:00        0.00
  WS02000136           JUNCTION     0.00     0.00     0.00     0  00:00        0.00
  WS02004053           JUNCTION     0.00     0.00     0.00     0  00:00        0.00
  WS02004401           JUNCTION     2.13     2.35     8.35     0  03:01        2.35
  WS02005192           JUNCTION     0.40     0.52     8.39     0  03:01        0.52
  WS02005193           JUNCTION     0.44     0.56     8.38     0  03:01        0.56
  WS02005196           JUNCTION     0.42     0.54     8.39     0  03:01        0.53
  WS02006109           JUNCTION     1.54     1.77     8.39     0  03:01        1.77
  WS02006110           JUNCTION     1.56     1.79     8.39     0  03:00        1.79
  WS02006111           JUNCTION     1.57     1.79     8.37     0  03:00        1.79
  WS02006112           JUNCTION     2.02     2.24     8.36     0  03:00        2.24
  WS02006113           JUNCTION     1.57     1.79     8.38     0  03:00        1.79
  WS02006115           JUNCTION     2.04     2.26     8.36     0  03:01        2.26
  WS02006116           JUNCTION     2.09     2.31     8.35     0  03:01        2.31
  WS02006183           JUNCTION     0.00     0.00     0.00     0  00:00        0.00
  WS02006228           JUNCTION     1.51     1.75     8.40     0  03:01        1.75
  WS02006229           JUNCTION     1.47     1.71     8.40     0  03:01        1.71
  WS02006230           JUNCTION     1.42     1.65     8.40     0  03:01        1.65
  WS02006231           JUNCTION     1.28     1.50     8.40     0  03:00        1.50
  WS02006232           JUNCTION     1.16     1.37     8.40     0  03:00        1.37
  WS02006234           JUNCTION     1.04     1.23     8.39     0  03:00        1.23
  WS02006235           JUNCTION     1.03     1.22     8.39     0  03:00        1.22
  WS02006238           JUNCTION     1.02     1.21     8.39     0  03:00        1.21
  WS02006239           JUNCTION     0.99     1.18     8.39     0  03:00        1.17
  WS02006242           JUNCTION     0.91     1.08     8.38     0  03:00        1.08
  WS02006240           JUNCTION     0.92     1.09     8.38     0  03:00        1.09
  WS02006243           JUNCTION     0.80     0.95     8.37     0  03:00        0.95
  WS02006245           JUNCTION     0.73     0.88     8.37     0  03:00        0.88
  WS02006247           JUNCTION     0.72     0.86     8.37     0  03:00        0.86
  WS02006248           JUNCTION     0.64     0.77     8.36     0  03:01        0.77
  WS02006249           JUNCTION     0.63     0.76     8.36     0  03:01        0.76
  WS02006251           JUNCTION     0.57     0.70     8.37     0  03:01        0.70
  WS02006253           JUNCTION     0.45     0.58     8.38     0  03:01        0.57
  WS02618401           JUNCTION     0.00     0.00     0.00     0  00:00        0.00
  WSA1649              JUNCTION     0.00     0.00     0.00     0  00:00        0.00
  outfall-5            OUTFALL      0.10     0.17     7.84     0  03:01        0.17
  outfall-14           OUTFALL      0.09     0.15     7.81     0  03:01        0.15
  outfall-16           OUTFALL      0.00     0.00     8.39     0  00:00        0.00
  CC-storage           STORAGE      5.32     5.63     8.81     0  01:35        5.63
  
  
  *******************
  Node Inflow Summary
  *******************
  
  -------------------------------------------------------------------------------------------------
                                  Maximum  Maximum                  Lateral       Total        Flow
                                  Lateral    Total  Time of Max      Inflow      Inflow     Balance
                                   Inflow   Inflow   Occurrence      Volume      Volume       Error
  Node                 Type           MLD      MLD  days hr:min    10^6 ltr    10^6 ltr     Percent
  -------------------------------------------------------------------------------------------------
  WS01000070           JUNCTION      0.00     0.00     0  00:00           0           0       0.000 ltr
  WS01000323           JUNCTION      0.00     0.00     0  00:00           0           0       0.000 ltr
  WS01000533           JUNCTION      0.00     0.00     0  00:00           0           0       0.000 ltr
  WS01005172           JUNCTION      0.00     0.00     0  00:00           0           0       0.000 ltr
  WS01005181           JUNCTION      0.00     0.00     0  00:00           0           0       0.000 ltr
  WS01009841           JUNCTION      0.00     0.00     0  00:00           0           0       0.000 ltr
  WS02000078           JUNCTION      0.00     0.00     0  00:00           0           0       0.000 ltr
  WS02000112           JUNCTION      0.00     0.00     0  00:00           0           0       0.000 ltr
  WS02000136           JUNCTION      0.00     0.00     0  00:00           0           0       0.000 ltr
  WS02004053           JUNCTION      0.00     0.00     0  00:00           0           0       0.000 ltr
  WS02004401           JUNCTION      0.05    23.14     0  03:01      0.0086       0.965       3.017
  WS02005192           JUNCTION      9.36     9.36     0  03:01       0.369       0.369       0.681
  WS02005193           JUNCTION      0.09     9.47     0  03:01       0.014       0.395       1.834
  WS02005196           JUNCTION      0.12     9.45     0  03:01      0.0183       0.384       1.714
  WS02006109           JUNCTION      0.08    13.20     0  03:01      0.0129       0.719       3.496
  WS02006110           JUNCTION      0.08    13.27     0  03:01      0.0126       0.709       3.594
  WS02006111           JUNCTION      0.24    22.66     0  03:01      0.0352        1.01       2.081
  WS02006112           JUNCTION      0.18    22.81     0  03:01      0.0263        1.01       3.333
  WS02006113           JUNCTION      9.57    22.46     0  03:01       0.383        1.03       2.350
  WS02006115           JUNCTION      0.08    22.89     0  03:01      0.0129       0.998       3.929
  WS02006116           JUNCTION      0.24    23.09     0  03:01      0.0347       0.999       3.608
  WS02006183           JUNCTION      0.00     0.00     0  00:00           0           0       0.000 ltr
  WS02006228           JUNCTION     14.41    14.41     0  03:04       0.696       0.852       2.182
  WS02006229           JUNCTION      0.13     5.26     0  02:00      0.0193       0.309       5.474
  WS02006230           JUNCTION      0.07     5.24     0  02:00      0.0111        0.32       8.646
  WS02006231           JUNCTION      0.13     4.96     0  01:49      0.0197       0.327       4.843
  WS02006232           JUNCTION      6.80     8.44     0  03:01       0.264       0.568       2.774
  WS02006234           JUNCTION      0.14     8.56     0  03:01      0.0208        0.56       2.524
  WS02006235           JUNCTION      0.14     8.68     0  03:01      0.0215       0.557       1.463
  WS02006238           JUNCTION      0.15     8.81     0  03:01      0.0226       0.558       1.855
  WS02006239           JUNCTION      0.11     8.90     0  03:01      0.0168       0.557       2.817
  WS02006242           JUNCTION      0.08     9.04     0  03:01      0.0124       0.558       3.402
  WS02006240           JUNCTION      0.06     8.96     0  03:01     0.00952       0.554       3.054
  WS02006243           JUNCTION      0.17     9.18     0  03:01      0.0259       0.565       3.152
  WS02006245           JUNCTION      0.07     9.25     0  03:01      0.0109       0.555       2.442
  WS02006247           JUNCTION      6.44    15.61     0  03:01       0.297       0.817       1.412
  WS02006248           JUNCTION      0.12    28.58     0  03:01      0.0185        1.25       0.852
  WS02006249           JUNCTION      0.19    13.00     0  03:01      0.0275       0.564       2.615
  WS02006251           JUNCTION      3.20    12.76     0  03:01       0.128        0.54       2.717
  WS02006253           JUNCTION      0.11     9.61     0  03:01      0.0166       0.411       1.791
  WS02618401           JUNCTION      0.00     0.00     0  00:00           0           0       0.000 ltr
  WSA1649              JUNCTION      0.00     0.00     0  00:00           0           0       0.000 ltr
  outfall-5            OUTFALL       0.00    28.58     0  03:01           0        1.13       0.000
  outfall-14           OUTFALL       0.00    23.13     0  03:01           0        0.93       0.000
  outfall-16           OUTFALL       0.00     0.00     0  00:00           0           0       0.000 ltr
  CC-storage           STORAGE      27.97    27.97     0  03:01        1.34        1.34       0.001
  
  
  **********************
  Node Surcharge Summary
  **********************
  
  Surcharging occurs when water rises above the top of the highest conduit.
  ---------------------------------------------------------------------
                                               Max. Height   Min. Depth
                                   Hours       Above Crown    Below Rim
  Node                 Type      Surcharged         Meters       Meters
  ---------------------------------------------------------------------
  WS01000070           JUNCTION        3.83          0.000        0.000
  WS01000323           JUNCTION        3.83          0.000        0.000
  WS01000533           JUNCTION        3.83          0.000        2.147
  WS01005172           JUNCTION        3.83          0.000        0.000
  WS01005181           JUNCTION        3.83          0.000        0.000
  WS01009841           JUNCTION        3.83          0.000        0.000
  WS02000078           JUNCTION        3.83          0.000        0.000
  WS02000112           JUNCTION        3.83          0.000        0.000
  WS02000136           JUNCTION        3.83          0.000        0.000
  WS02004053           JUNCTION        3.83          0.000        0.000
  WS02006109           JUNCTION        2.20          0.973        0.865
  WS02006110           JUNCTION        2.21          0.988        0.857
  WS02006111           JUNCTION        2.21          0.992        0.885
  WS02006112           JUNCTION        2.43          1.243        0.440
  WS02006113           JUNCTION        2.21          0.994        0.939
  WS02006115           JUNCTION        2.45          1.258        1.041
  WS02006116           JUNCTION        2.53          1.315        1.035
  WS02006183           JUNCTION        3.83          0.000        0.000
  WS02006228           JUNCTION        2.19          0.947        1.284
  WS02006229           JUNCTION        2.16          0.907        1.547
  WS02006231           JUNCTION        2.10          0.796        0.747
  WS02006232           JUNCTION        2.03          0.666        0.823
  WS02006234           JUNCTION        1.96          0.534        0.723
  WS02006235           JUNCTION        1.96          0.522        0.772
  WS02006238           JUNCTION        1.95          0.511        0.923
  WS02006239           JUNCTION        1.94          0.477        0.852
  WS02006242           JUNCTION        1.90          0.379        0.470
  WS02006240           JUNCTION        1.90          0.394        1.009
  WS02006243           JUNCTION        1.85          0.255        0.525
  WS02006245           JUNCTION        1.82          0.181        0.674
  WS02006247           JUNCTION        1.82          0.158        0.602
  WS02006249           JUNCTION        1.12          0.065        0.323
  WS02006251           JUNCTION        0.02          0.004        1.506
  WS02618401           JUNCTION        3.83          0.000        0.000
  WSA1649              JUNCTION        3.83          0.000        0.000
  
  
  *********************
  Node Flooding Summary
  *********************
  
  Flooding refers to all water that overflows a node, whether it ponds or not.
  --------------------------------------------------------------------------
                                                             Total   Maximum
                                 Maximum   Time of Max       Flood    Ponded
                        Hours       Rate    Occurrence      Volume     Depth
  Node                 Flooded       MLD   days hr:min    10^6 ltr    Meters
  --------------------------------------------------------------------------
  CC-storage              2.23     27.97      0  03:01       1.178     0.000
  
  
  **********************
  Storage Volume Summary
  **********************
  
  --------------------------------------------------------------------------------------------------
                         Average     Avg  Evap Exfil       Maximum     Max    Time of Max    Maximum
                          Volume    Pcnt  Pcnt  Pcnt        Volume    Pcnt     Occurrence    Outflow
  Storage Unit           1000 m3    Full  Loss  Loss       1000 m3    Full    days hr:min        MLD
  --------------------------------------------------------------------------------------------------
  CC-storage               0.150      94     0     0         0.159     100       0  01:35       0.00
  
  
  ***********************
  Outfall Loading Summary
  ***********************
  
  ---------------------------------------------------------------------------------------------------------------------------------
                         Flow       Avg       Max       Total         Total         Total         Total         Total         Total
                         Freq      Flow      Flow      Volume           COD         NH3-N            TN            TP            SS
  Outfall Node           Pcnt       MLD       MLD    10^6 ltr            kg            kg            kg            kg            kg
  ---------------------------------------------------------------------------------------------------------------------------------
  outfall-5             86.70     15.47     28.58       1.131       195.672         0.000         0.000         0.000         0.000
  outfall-14            86.65     12.76     23.13       0.930       157.769         0.000         0.000         0.000         0.000
  outfall-16             0.00      0.00      0.00       0.000         0.000         0.000         0.000         0.000         0.000
  ---------------------------------------------------------------------------------------------------------------------------------
  System                57.78     28.23     51.69       2.061       353.441         0.000         0.000         0.000         0.000
  
  
  ********************
  Link Flow Summary
  ********************
  
  -----------------------------------------------------------------------------
                                 Maximum  Time of Max   Maximum    Max/    Max/
                                  |Flow|   Occurrence   |Veloc|    Full    Full
  Link                 Type          MLD  days hr:min     m/sec    Flow   Depth
  -----------------------------------------------------------------------------
  WSL2038              CONDUIT      9.34     0  03:01      0.54    0.47    0.88
  WSL2039              CONDUIT      9.52     0  03:01      0.82    0.49    0.95
  WSL2041              CONDUIT      9.39     0  03:01      0.61    0.46    0.91
  WSL2294              CONDUIT     13.20     0  03:01      0.43    0.44    1.00
  WSL2295              CONDUIT     13.27     0  03:01      0.50    0.60    1.00
  WSL2296              CONDUIT     22.67     0  03:01      0.63    0.13    1.00
  WSL2297              CONDUIT     22.82     0  03:01      0.34    0.44    1.00
  WSL2298              CONDUIT     22.47     0  03:01      0.87    1.03    1.00
  WSL2301              CONDUIT     22.89     0  03:01      0.34    0.21    1.00
  WSL2302              CONDUIT     23.09     0  03:01      0.34    0.28    1.00
  WSL2441              CONDUIT     13.12     0  03:01      0.44    0.34    1.00
  WSL2442              CONDUIT      5.17     0  02:00      0.63    0.13    1.00
  WSL2443              CONDUIT      4.83     0  01:49      0.73    0.08    1.00
  WSL2444              CONDUIT      4.95     0  01:49      0.90    0.08    1.00
  WSL2446              CONDUIT      8.44     0  03:01      0.86    0.14    1.00
  WSL2447              CONDUIT      8.56     0  03:01      0.75    0.44    1.00
  WSL2448              CONDUIT      8.68     0  03:01      0.61    0.24    1.00
  WSL2449              CONDUIT      8.81     0  03:01      0.59    0.31    1.00
  WSL2450              CONDUIT      8.90     0  03:01      0.68    0.19    1.00
  WSL2451              CONDUIT      8.96     0  03:01      0.65    0.58    1.00
  WSL2452              CONDUIT      9.04     0  03:01      0.68    0.17    1.00
  WSL2454              CONDUIT      9.18     0  03:01      0.83    0.21    1.00
  WSL2478              CONDUIT      9.25     0  03:01      0.71    0.33    1.00
  WSL2479              CONDUIT     15.62     0  03:01      0.63    0.30    1.00
  WSL2480              CONDUIT     13.01     0  03:01      0.70    0.60    1.00
  WSL2482              CONDUIT     12.84     0  03:01      0.62    0.33    1.00
  WSL2484              CONDUIT      9.73     0  03:01      0.71    0.14    0.91
  WSL2493              CONDUIT      5.14     0  02:00      0.51    0.09    1.00
  8                    CONDUIT     28.58     0  03:01      6.49    0.38    0.43
  19                   CONDUIT      0.00     0  00:00      0.00    0.00    0.00
  17                   CONDUIT     23.13     0  03:01      6.20    0.30    0.38
  CC-Pump-1            PUMP         0.00     0  00:00              0.00
  CC-Pump-2            PUMP         0.00     0  00:00              0.00
  
  
  ***************************
  Flow Classification Summary
  ***************************
  
  -------------------------------------------------------------------------------------
                      Adjusted    ---------- Fraction of Time in Flow Class ---------- 
                       /Actual         Up    Down  Sub   Sup   Up    Down  Norm  Inlet 
  Conduit               Length    Dry  Dry   Dry   Crit  Crit  Crit  Crit  Ltd   Ctrl  
  -------------------------------------------------------------------------------------
  WSL2038                 1.00   0.00  0.00  0.00  1.00  0.00  0.00  0.00  0.01  0.00
  WSL2039                 1.00   0.00  0.00  0.00  1.00  0.00  0.00  0.00  0.00  0.00
  WSL2041                 1.00   0.00  0.00  0.00  1.00  0.00  0.00  0.00  0.31  0.00
  WSL2294                 1.00   0.00  0.00  0.00  1.00  0.00  0.00  0.00  0.00  0.00
  WSL2295                 1.00   0.00  0.00  0.00  1.00  0.00  0.00  0.00  0.00  0.00
  WSL2296                 1.00   0.00  0.00  0.00  1.00  0.00  0.00  0.00  0.17  0.00
  WSL2297                 1.00   0.00  0.00  0.00  1.00  0.00  0.00  0.00  0.00  0.00
  WSL2298                 1.00   0.00  0.00  0.00  0.98  0.02  0.00  0.00  0.00  0.00
  WSL2301                 1.00   0.00  0.00  0.00  1.00  0.00  0.00  0.00  0.04  0.00
  WSL2302                 1.00   0.00  0.00  0.00  1.00  0.00  0.00  0.00  0.01  0.00
  WSL2441                 1.00   0.00  0.00  0.00  1.00  0.00  0.00  0.00  0.00  0.00
  WSL2442                 1.00   0.00  0.00  0.00  1.00  0.00  0.00  0.00  0.17  0.00
  WSL2443                 1.00   0.00  0.00  0.00  1.00  0.00  0.00  0.00  0.31  0.00
  WSL2444                 1.00   0.00  0.00  0.00  0.93  0.07  0.00  0.00  0.23  0.00
  WSL2446                 1.00   0.00  0.00  0.00  0.93  0.07  0.00  0.00  0.03  0.00
  WSL2447                 1.00   0.00  0.00  0.00  1.00  0.00  0.00  0.00  0.00  0.00
  WSL2448                 1.00   0.00  0.00  0.00  1.00  0.00  0.00  0.00  0.00  0.00
  WSL2449                 1.00   0.00  0.00  0.00  1.00  0.00  0.00  0.00  0.03  0.00
  WSL2450                 1.00   0.00  0.00  0.00  1.00  0.00  0.00  0.00  0.43  0.00
  WSL2451                 1.00   0.00  0.00  0.00  1.00  0.00  0.00  0.00  0.00  0.00
  WSL2452                 1.00   0.00  0.00  0.00  1.00  0.00  0.00  0.00  0.43  0.00
  WSL2454                 1.00   0.00  0.00  0.00  1.00  0.00  0.00  0.00  0.02  0.00
  WSL2478                 1.00   0.00  0.00  0.00  1.00  0.00  0.00  0.00  0.00  0.00
  WSL2479                 1.00   0.00  0.00  0.00  1.00  0.00  0.00  0.00  0.47  0.00
  WSL2480                 1.00   0.00  0.00  0.00  1.00  0.00  0.00  0.00  0.00  0.00
  WSL2482                 1.00   0.00  0.00  0.00  1.00  0.00  0.00  0.00  0.48  0.00
  WSL2484                 1.00   0.00  0.00  0.00  1.00  0.00  0.00  0.00  0.48  0.00
  WSL2493                 1.00   0.00  0.00  0.00  1.00  0.00  0.00  0.00  0.05  0.00
  8                       1.00   0.13  0.00  0.00  0.00  0.87  0.00  0.00  0.02  0.00
  19                      1.00   1.00  0.00  0.00  0.00  0.00  0.00  0.00  0.00  0.00
  17                      1.00   0.13  0.00  0.00  0.00  0.87  0.00  0.00  0.00  0.00
  
  
  *************************
  Conduit Surcharge Summary
  *************************
  
  ----------------------------------------------------------------------------
                                                           Hours        Hours 
                         --------- Hours Full --------   Above Full   Capacity
  Conduit                Both Ends  Upstream  Dnstream   Normal Flow   Limited
  ----------------------------------------------------------------------------
  WSL2294                     2.20      2.20      2.21      0.01         0.01
  WSL2295                     2.21      2.21      2.21      0.01         0.01
  WSL2296                     2.21      2.21      2.74      0.01         0.01
  WSL2297                     2.43      2.43      2.45      0.01         0.01
  WSL2298                     2.21      2.21      2.21      0.03         0.05
  WSL2301                     2.45      2.45      2.53      0.01         0.01
  WSL2302                     2.53      2.53      2.60      0.01         0.01
  WSL2441                     2.19      2.19      2.20      0.01         0.01
  WSL2442                     2.19      2.19      2.22      0.01         0.01
  WSL2443                     2.10      2.10      2.19      0.01         0.01
  WSL2444                     2.03      2.03      2.10      0.01         0.01
  WSL2446                     1.96      1.96      2.03      0.01         0.01
  WSL2447                     1.96      1.96      1.96      0.01         0.01
  WSL2448                     1.95      1.95      1.96      0.01         0.01
  WSL2449                     1.94      1.94      1.95      0.01         0.01
  WSL2450                     1.90      1.90      1.94      0.01         0.01
  WSL2451                     1.90      1.90      1.90      0.01         0.01
  WSL2452                     1.85      1.85      1.90      0.01         0.01
  WSL2454                     1.82      1.82      1.85      0.01         0.01
  WSL2478                     1.82      1.82      1.82      0.01         0.01
  WSL2479                     1.50      1.50      1.82      0.01         0.01
  WSL2480                     1.12      1.12      1.50      0.01         0.01
  WSL2482                     0.02      0.02      1.12      0.01         0.01
  WSL2484                     0.01      0.01      0.02      0.01         0.01
  WSL2493                     2.16      2.16      2.19      0.01         0.01
  
  
  ***************
  Pumping Summary
  ***************
  
  ---------------------------------------------------------------------------------------------------------
                                                  Min       Avg       Max     Total     Power    % Time Off
                        Percent   Number of      Flow      Flow      Flow    Volume     Usage    Pump Curve
  Pump                 Utilized   Start-Ups       MLD       MLD       MLD  10^6 ltr     Kw-hr    Low   High
  ---------------------------------------------------------------------------------------------------------
  CC-Pump-1                0.00           0      0.00      0.00      0.00     0.000      0.00    0.0    0.0
  CC-Pump-2                0.00           0      0.00      0.00      0.00     0.000      0.00    0.0    0.0
  
  
  ***************************
  Link Pollutant Load Summary
  ***************************
  
  ------------------------------------------------------------------------------------------
                                 COD         NH3-N            TN            TP            SS
  Link                            kg            kg            kg            kg            kg
  ------------------------------------------------------------------------------------------
  WSL2038                     72.083         0.000         0.000         0.000         0.000
  WSL2039                     77.090         0.000         0.000         0.000         0.000
  WSL2041                     74.680         0.000         0.000         0.000         0.000
  WSL2294                    191.958         0.000         0.000         0.000         0.000
  WSL2295                    182.112         0.000         0.000         0.000         0.000
  WSL2296                    178.826         0.000         0.000         0.000         0.000
  WSL2297                    172.827         0.000         0.000         0.000         0.000
  WSL2298                    177.374         0.000         0.000         0.000         0.000
  WSL2301                    167.259         0.000         0.000         0.000         0.000
  WSL2302                    163.150         0.000         0.000         0.000         0.000
  WSL2441                    200.971         0.000         0.000         0.000         0.000
  WSL2442                     71.118         0.000         0.000         0.000         0.000
  WSL2443                     67.196         0.000         0.000         0.000         0.000
  WSL2444                     64.724         0.000         0.000         0.000         0.000
  WSL2446                     63.227         0.000         0.000         0.000         0.000
  WSL2447                     62.131         0.000         0.000         0.000         0.000
  WSL2448                     61.856         0.000         0.000         0.000         0.000
  WSL2449                     60.526         0.000         0.000         0.000         0.000
  WSL2450                     59.388         0.000         0.000         0.000         0.000
  WSL2451                     58.210         0.000         0.000         0.000         0.000
  WSL2452                     57.519         0.000         0.000         0.000         0.000
  WSL2454                     56.610         0.000         0.000         0.000         0.000
  WSL2478                     56.076         0.000         0.000         0.000         0.000
  WSL2479                    101.479         0.000         0.000         0.000         0.000
  WSL2480                    120.792         0.000         0.000         0.000         0.000
  WSL2482                    117.107         0.000         0.000         0.000         0.000
  WSL2484                     80.156         0.000         0.000         0.000         0.000
  WSL2493                     72.869         0.000         0.000         0.000         0.000
  8                          195.672         0.000         0.000         0.000         0.000
  19                           0.000         0.000         0.000         0.000         0.000
  17                         157.769         0.000         0.000         0.000         0.000
  CC-Pump-1                    0.000         0.000         0.000         0.000         0.000
  CC-Pump-2                    0.000         0.000         0.000         0.000         0.000
  

  Analysis begun on:  Thu Aug 15 17:33:11 2019
  Analysis ended on:  Thu Aug 15 17:33:11 2019
  Total elapsed time: < 1 sec