
  EPA STORM WATER MANAGEMENT MODEL - VERSION 5.1 (Build 5.2.0.dev5)
  --------------------------------------------------------------

  
  *********************************************************
  NOTE: The summary statistics displayed in this report are
  based on results found at every computational time step,  
  not just on results from each reporting time step.
  *********************************************************
  
  ****************
  Analysis Options
  ****************
  Flow Units ............... MLD
  Process Models:
    Rainfall/Runoff ........ YES
    RDII ................... NO
    Snowmelt ............... NO
    Groundwater ............ NO
    Flow Routing ........... YES
    Ponding Allowed ........ NO
    Water Quality .......... YES
  Infiltration Method ...... GREEN_AMPT
  Flow Routing Method ...... DYNWAVE
  Surcharge Method ......... EXTRAN
  Starting Date ............ 08/28/2015 08:00:00
  Ending Date .............. 08/28/2015 11:50:00
  Antecedent Dry Days ...... 4.0
  Report Time Step ......... 00:01:00
  Wet Time Step ............ 00:01:00
  Dry Time Step ............ 00:01:00
  Routing Time Step ........ 5.00 sec
  Variable Time Step ....... YES
  Maximum Trials ........... 8
  Number of Threads ........ 1
  Head Tolerance ........... 0.001500 m
  
  
  **************************        Volume         Depth
  Runoff Quantity Continuity     hectare-m            mm
  **************************     ---------       -------
  Total Precipitation ......         0.589         9.528
  Evaporation Loss .........         0.000         0.000
  Infiltration Loss ........         0.354         5.719
  Surface Runoff ...........         0.093         1.508
  Final Storage ............         0.142         2.302
  Continuity Error (%) .....        -0.011
  
  
  **************************           COD         NH3-N            TN            TP            SS
  Runoff Quality Continuity             kg            kg            kg            kg            kg
  **************************    ----------    ----------    ----------    ----------    ----------
  Initial Buildup ..........      2504.640         0.000         0.000         0.000         0.000
  Surface Buildup ..........        20.882         0.000         0.000         0.000         0.000
  Wet Deposition ...........         0.000         0.000         0.000         0.000         0.000
  Sweeping Removal .........         0.000         0.000         0.000         0.000         0.000
  Infiltration Loss ........        26.394         0.000         0.000         0.000         0.000
  BMP Removal ..............         0.000         0.000         0.000         0.000         0.000
  Surface Runoff ...........        82.466         0.000         0.000         0.000         0.000
  Remaining Buildup ........      2416.359         0.000         0.000         0.000         0.000
  Continuity Error (%) .....         0.012         0.000         0.000         0.000         0.000
  
  
  **************************        Volume        Volume
  Flow Routing Continuity        hectare-m      10^6 ltr
  **************************     ---------     ---------
  Dry Weather Inflow .......         0.000         0.000
  Wet Weather Inflow .......         0.093         0.930
  Groundwater Inflow .......         0.000         0.000
  RDII Inflow ..............         0.000         0.000
  External Inflow ..........         0.082         0.822
  External Outflow .........         0.061         0.605
  Flooding Loss ............         0.048         0.479
  Evaporation Loss .........         0.000         0.000
  Exfiltration Loss ........         0.000         0.000
  Initial Stored Volume ....         0.000         0.000
  Final Stored Volume ......         0.062         0.618
  Continuity Error (%) .....         2.867
  
  
  **************************           COD         NH3-N            TN            TP            SS
  Quality Routing Continuity            kg            kg            kg            kg            kg
  **************************    ----------    ----------    ----------    ----------    ----------
  Dry Weather Inflow .......         0.000         0.000         0.000         0.000         0.000
  Wet Weather Inflow .......        82.279         0.000         0.000         0.000         0.000
  Groundwater Inflow .......         0.000         0.000         0.000         0.000         0.000
  RDII Inflow ..............         0.000         0.000         0.000         0.000         0.000
  External Inflow ..........       137.266         0.000         0.000         0.000         0.000
  External Outflow .........        74.876         0.000         0.000         0.000         0.000
  Flooding Loss ............        56.076         0.000         0.000         0.000         0.000
  Exfiltration Loss ........         0.000         0.000         0.000         0.000         0.000
  Mass Reacted .............         0.000         0.000         0.000         0.000         0.000
  Initial Stored Mass ......         0.000         0.000         0.000         0.000         0.000
  Final Stored Mass ........        80.428         0.000         0.000         0.000         0.000
  Continuity Error (%) .....         3.719         0.000         0.000         0.000         0.000
  
  
  *************************
  Highest Continuity Errors
  *************************
  Node WS02006115 (11.58%)
  Node WS02006116 (10.88%)
  Node WS02006230 (10.57%)
  Node WS02006112 (9.49%)
  Node WS02004401 (9.38%)
  
  
  ***************************
  Time-Step Critical Elements
  ***************************
  Link 8 (74.66%)
  Link WSL2448 (20.00%)
  
  
  ********************************
  Highest Flow Instability Indexes
  ********************************
  Link WSL2302 (5)
  Link WSL2301 (5)
  Link WSL2297 (4)
  Link WSL2296 (4)
  Link WSL2298 (3)
  
  
  *************************
  Routing Time Step Summary
  *************************
  Minimum Time Step           :     0.45 sec
  Average Time Step           :     1.63 sec
  Maximum Time Step           :     5.00 sec
  Percent in Steady State     :     0.00
  Average Iterations per Step :     2.05
  Percent Not Converging      :     0.14
  
  
  ***************************
  Subcatchment Runoff Summary
  ***************************
  
  ------------------------------------------------------------------------------------------------------------------------------
                            Total      Total      Total      Total     Imperv       Perv      Total       Total     Peak  Runoff
                           Precip      Runon       Evap      Infil     Runoff     Runoff     Runoff      Runoff   Runoff   Coeff
  Subcatchment                 mm         mm         mm         mm         mm         mm         mm    10^6 ltr      MLD
  ------------------------------------------------------------------------------------------------------------------------------
  1                          9.53       6.88       0.00       6.50       3.83       1.49       5.32        0.06     1.60   0.324
  2                          9.53       0.00       0.00       5.51       2.17       0.24       2.41        0.08     2.16   0.253
  3                          9.53       0.00       0.00       5.52       2.12       0.19       2.32        0.12     3.08   0.243
  35                         9.53       0.00       0.00       5.51       2.19       0.25       2.43        0.07     1.98   0.255
  36                         9.53       4.44       0.00       6.27       3.07       0.53       3.60        0.21     5.13   0.257
  40                         9.53       1.25       0.00       5.75       2.44       0.32       2.76        0.11     2.79   0.256
  41                         9.53       0.00       0.00       5.50       2.23       0.30       2.53        0.05     1.35   0.266
  42                         9.53       0.00       0.00       5.51       2.21       0.28       2.50        0.06     1.55   0.262
  43                         9.53       0.00       0.00       5.45       2.33       0.62       2.94        0.01     0.33   0.309
  44                         9.53      59.95       0.00      10.19      16.78      26.17      42.95        0.16     3.39   0.618
  45                         9.53       0.00       0.00       5.49       2.28       0.40       2.68        0.03     0.79   0.281
  46                         9.53       3.67       0.00       6.14       3.05       0.73       3.78        0.08     2.08   0.287
  47                         9.53       0.00       0.00       5.49       2.27       0.39       2.66        0.03     0.84   0.279
  48                         9.53       1.86       0.00       5.84       2.68       0.57       3.24        0.05     1.38   0.285
  55                         9.53       2.75       0.00       5.96       2.93       0.91       3.85        0.03     0.88   0.313
  56                         9.53       4.04       0.00       6.18       3.13       0.78       3.91        0.08     2.13   0.288
  57                         9.53       0.00       0.00       5.52       2.13       0.20       2.32        0.12     3.03   0.244
  59                         9.53       0.00       0.00       5.48       2.29       0.44       2.72        0.02     0.66   0.286
  60                         9.53       6.08       0.00       6.41       3.76       1.95       5.71        0.03     0.79   0.366
  61                         9.53       0.00       0.00       5.54       1.90       0.11       2.01        0.36     8.82   0.211
  64                         9.53       0.00       0.00       5.49       2.27       0.37       2.64        0.03     0.90   0.277
  
  
  ****************************
  Subcatchment Washoff Summary
  ****************************
  
  ------------------------------------------------------------------------------------------
                                 COD         NH3-N            TN            TP            SS
  Subcatchment                    kg            kg            kg            kg            kg
  ------------------------------------------------------------------------------------------
  1                            3.970         0.000         0.000         0.000         0.000
  2                            0.000         0.000         0.000         0.000         0.000
  3                            0.000         0.000         0.000         0.000         0.000
  35                           6.283         0.000         0.000         0.000         0.000
  36                          32.452         0.000         0.000         0.000         0.000
  40                          11.272         0.000         0.000         0.000         0.000
  41                           4.351         0.000         0.000         0.000         0.000
  42                           4.971         0.000         0.000         0.000         0.000
  43                           1.099         0.000         0.000         0.000         0.000
  44                          38.399         0.000         0.000         0.000         0.000
  45                           2.582         0.000         0.000         0.000         0.000
  46                          12.411         0.000         0.000         0.000         0.000
  47                           2.746         0.000         0.000         0.000         0.000
  48                           6.330         0.000         0.000         0.000         0.000
  55                           4.693         0.000         0.000         0.000         0.000
  56                          13.565         0.000         0.000         0.000         0.000
  57                           9.466         0.000         0.000         0.000         0.000
  59                           2.185         0.000         0.000         0.000         0.000
  60                           6.229         0.000         0.000         0.000         0.000
  61                          25.938         0.000         0.000         0.000         0.000
  64                           2.928         0.000         0.000         0.000         0.000
  ------------------------------------------------------------------------------------------
  System                     191.870         0.000         0.000         0.000         0.000
  
  
  ******************
  Node Depth Summary
  ******************
  
  ---------------------------------------------------------------------------------
                                 Average  Maximum  Maximum  Time of Max    Reported
                                   Depth    Depth      HGL   Occurrence   Max Depth
  Node                 Type       Meters   Meters   Meters  days hr:min      Meters
  ---------------------------------------------------------------------------------
  WS01000070           JUNCTION     0.00     0.00     0.00     0  00:00        0.00
  WS01000323           JUNCTION     0.00     0.00     0.00     0  00:00        0.00
  WS01000533           JUNCTION     0.00     0.00     6.86     0  00:00        0.00
  WS01005172           JUNCTION     0.00     0.00     0.00     0  00:00        0.00
  WS01005181           JUNCTION     0.00     0.00     0.00     0  00:00        0.00
  WS01009841           JUNCTION     0.00     0.00     0.00     0  00:00        0.00
  WS02000078           JUNCTION     0.00     0.00     0.00     0  00:00        0.00
  WS02000112           JUNCTION     0.00     0.00     0.00     0  00:00        0.00
  WS02000136           JUNCTION     0.00     0.00     0.00     0  00:00        0.00
  WS02004053           JUNCTION     0.00     0.00     0.00     0  00:00        0.00
  WS02004401           JUNCTION     1.98     2.28     8.28     0  03:01        2.28
  WS02005192           JUNCTION     0.32     0.42     8.29     0  02:30        0.42
  WS02005193           JUNCTION     0.36     0.47     8.29     0  03:01        0.47
  WS02005196           JUNCTION     0.33     0.44     8.29     0  02:30        0.44
  WS02006109           JUNCTION     1.39     1.67     8.29     0  03:00        1.67
  WS02006110           JUNCTION     1.41     1.69     8.29     0  03:00        1.69
  WS02006111           JUNCTION     1.42     1.71     8.29     0  03:00        1.71
  WS02006112           JUNCTION     1.86     2.17     8.29     0  03:00        2.17
  WS02006113           JUNCTION     1.42     1.70     8.29     0  03:00        1.70
  WS02006115           JUNCTION     1.88     2.19     8.29     0  03:01        2.19
  WS02006116           JUNCTION     1.94     2.25     8.29     0  03:01        2.25
  WS02006183           JUNCTION     0.00     0.00     0.00     0  00:00        0.00
  WS02006228           JUNCTION     1.36     1.64     8.29     0  03:00        1.64
  WS02006229           JUNCTION     1.32     1.60     8.29     0  03:00        1.60
  WS02006230           JUNCTION     1.27     1.54     8.29     0  03:01        1.54
  WS02006231           JUNCTION     1.13     1.39     8.29     0  03:01        1.39
  WS02006232           JUNCTION     1.01     1.26     8.29     0  03:01        1.26
  WS02006234           JUNCTION     0.90     1.13     8.29     0  03:01        1.13
  WS02006235           JUNCTION     0.90     1.12     8.29     0  03:01        1.12
  WS02006238           JUNCTION     0.89     1.11     8.29     0  03:01        1.11
  WS02006239           JUNCTION     0.86     1.08     8.29     0  03:00        1.08
  WS02006242           JUNCTION     0.79     0.99     8.29     0  03:00        0.99
  WS02006240           JUNCTION     0.79     1.00     8.29     0  03:00        1.00
  WS02006243           JUNCTION     0.68     0.87     8.29     0  03:01        0.87
  WS02006245           JUNCTION     0.62     0.80     8.29     0  03:01        0.80
  WS02006247           JUNCTION     0.61     0.78     8.29     0  03:01        0.78
  WS02006248           JUNCTION     0.54     0.70     8.29     0  03:01        0.70
  WS02006249           JUNCTION     0.53     0.69     8.29     0  03:01        0.69
  WS02006251           JUNCTION     0.47     0.62     8.29     0  03:01        0.62
  WS02006253           JUNCTION     0.37     0.49     8.29     0  03:01        0.49
  WS02618401           JUNCTION     0.00     0.00     0.00     0  00:00        0.00
  WSA1649              JUNCTION     0.00     0.00     0.00     0  00:00        0.00
  outfall-5            OUTFALL      0.06     0.10     7.76     0  03:01        0.10
  outfall-14           OUTFALL      0.05     0.08     7.74     0  03:01        0.08
  outfall-16           OUTFALL      0.00     0.00     8.39     0  00:00        0.00
  CC-storage           STORAGE      5.15     5.63     8.81     0  01:46        5.63
  
  
  *******************
  Node Inflow Summary
  *******************
  
  -------------------------------------------------------------------------------------------------
                                  Maximum  Maximum                  Lateral       Total        Flow
                                  Lateral    Total  Time of Max      Inflow      Inflow     Balance
                                   Inflow   Inflow   Occurrence      Volume      Volume       Error
  Node                 Type           MLD      MLD  days hr:min    10^6 ltr    10^6 ltr     Percent
  -------------------------------------------------------------------------------------------------
  WS01000070           JUNCTION      0.00     0.00     0  00:00           0           0       0.000 ltr
  WS01000323           JUNCTION      0.00     0.00     0  00:00           0           0       0.000 ltr
  WS01000533           JUNCTION      0.00     0.00     0  00:00           0           0       0.000 ltr
  WS01005172           JUNCTION      0.00     0.00     0  00:00           0           0       0.000 ltr
  WS01005181           JUNCTION      0.00     0.00     0  00:00           0           0       0.000 ltr
  WS01009841           JUNCTION      0.00     0.00     0  00:00           0           0       0.000 ltr
  WS02000078           JUNCTION      0.00     0.00     0  00:00           0           0       0.000 ltr
  WS02000112           JUNCTION      0.00     0.00     0  00:00           0           0       0.000 ltr
  WS02000136           JUNCTION      0.00     0.00     0  00:00           0           0       0.000 ltr
  WS02004053           JUNCTION      0.00     0.00     0  00:00           0           0       0.000 ltr
  WS02004401           JUNCTION      0.05     7.51     0  03:01      0.0086       0.296      10.355
  WS02005192           JUNCTION      3.12     3.12     0  03:01       0.133       0.133       1.698
  WS02005193           JUNCTION      0.09     3.29     0  03:01       0.014        0.16       4.229
  WS02005196           JUNCTION      0.12     3.21     0  03:01      0.0183       0.149       4.073
  WS02006109           JUNCTION      0.08     3.66     0  03:01      0.0129       0.298       9.090
  WS02006110           JUNCTION      0.08     3.74     0  03:01      0.0126       0.286       9.617
  WS02006111           JUNCTION      0.24     7.03     0  03:01      0.0352       0.354       6.423
  WS02006112           JUNCTION      0.18     7.18     0  03:01      0.0263       0.355      10.490
  WS02006113           JUNCTION      3.22     6.84     0  03:01       0.143       0.374       6.941
  WS02006115           JUNCTION      0.08     7.26     0  03:01      0.0129       0.335      13.094
  WS02006116           JUNCTION      0.24     7.46     0  03:01      0.0347       0.333      12.210
  WS02006183           JUNCTION      0.00     0.00     0  00:00           0           0       0.000 ltr
  WS02006228           JUNCTION      3.54     3.59     0  03:01       0.186       0.347       5.720
  WS02006229           JUNCTION      0.13     3.09     0  02:12      0.0193       0.227       7.920
  WS02006230           JUNCTION      0.07     3.14     0  02:12      0.0111       0.235      11.823
  WS02006231           JUNCTION      0.13     3.02     0  02:11      0.0197       0.241       6.860
  WS02006232           JUNCTION      2.24     3.92     0  02:28      0.0942       0.317       5.230
  WS02006234           JUNCTION      0.14     4.04     0  02:28      0.0208       0.312       4.730
  WS02006235           JUNCTION      0.14     4.30     0  02:13      0.0215       0.305       2.948
  WS02006238           JUNCTION      0.15     4.30     0  02:13      0.0226       0.303       3.696
  WS02006239           JUNCTION      0.11     4.43     0  02:29      0.0167         0.3       5.487
  WS02006242           JUNCTION      0.08     4.59     0  02:29      0.0124       0.296       6.748
  WS02006240           JUNCTION      0.06     4.50     0  02:29     0.00952       0.294       5.989
  WS02006243           JUNCTION      0.17     4.74     0  02:29      0.0259       0.298       6.153
  WS02006245           JUNCTION      0.07     4.76     0  02:29      0.0109       0.284       4.892
  WS02006247           JUNCTION      1.73     5.57     0  02:29      0.0883        0.34       3.461
  WS02006248           JUNCTION      0.12     9.52     0  03:01      0.0185       0.458       2.289
  WS02006249           JUNCTION      0.19     4.49     0  03:02      0.0275       0.242       6.101
  WS02006251           JUNCTION      0.94     4.30     0  03:01      0.0413       0.217       6.644
  WS02006253           JUNCTION      0.11     3.39     0  03:01      0.0166       0.175       3.946
  WS02618401           JUNCTION      0.00     0.00     0  00:00           0           0       0.000 ltr
  WSA1649              JUNCTION      0.00     0.00     0  00:00           0           0       0.000 ltr
  outfall-5            OUTFALL       0.00     9.52     0  03:01           0       0.344       0.000
  outfall-14           OUTFALL       0.00     7.50     0  03:01           0       0.261       0.000
  outfall-16           OUTFALL       0.00     0.00     0  00:00           0           0       0.000 ltr
  CC-storage           STORAGE      10.28    10.28     0  03:01       0.638       0.638       0.016
  
  
  **********************
  Node Surcharge Summary
  **********************
  
  Surcharging occurs when water rises above the top of the highest conduit.
  ---------------------------------------------------------------------
                                               Max. Height   Min. Depth
                                   Hours       Above Crown    Below Rim
  Node                 Type      Surcharged         Meters       Meters
  ---------------------------------------------------------------------
  WS01000070           JUNCTION        3.83          0.000        0.000
  WS01000323           JUNCTION        3.83          0.000        0.000
  WS01000533           JUNCTION        3.83          0.000        2.147
  WS01005172           JUNCTION        3.83          0.000        0.000
  WS01005181           JUNCTION        3.83          0.000        0.000
  WS01009841           JUNCTION        3.83          0.000        0.000
  WS02000078           JUNCTION        3.83          0.000        0.000
  WS02000112           JUNCTION        3.83          0.000        0.000
  WS02000136           JUNCTION        3.83          0.000        0.000
  WS02004053           JUNCTION        3.83          0.000        0.000
  WS02006109           JUNCTION        2.02          0.871        0.967
  WS02006110           JUNCTION        2.04          0.891        0.954
  WS02006111           JUNCTION        2.06          0.909        0.968
  WS02006112           JUNCTION        2.38          1.167        0.516
  WS02006113           JUNCTION        2.05          0.901        1.032
  WS02006115           JUNCTION        2.40          1.186        1.113
  WS02006116           JUNCTION        2.50          1.245        1.105
  WS02006183           JUNCTION        3.83          0.000        0.000
  WS02006228           JUNCTION        1.99          0.841        1.390
  WS02006229           JUNCTION        1.95          0.801        1.653
  WS02006231           JUNCTION        1.86          0.690        0.853
  WS02006232           JUNCTION        1.74          0.560        0.929
  WS02006234           JUNCTION        1.62          0.430        0.827
  WS02006235           JUNCTION        1.61          0.420        0.874
  WS02006238           JUNCTION        1.60          0.410        1.024
  WS02006239           JUNCTION        1.58          0.379        0.950
  WS02006242           JUNCTION        1.50          0.288        0.561
  WS02006240           JUNCTION        1.51          0.299        1.104
  WS02006243           JUNCTION        1.41          0.167        0.613
  WS02006245           JUNCTION        1.37          0.097        0.758
  WS02006247           JUNCTION        1.36          0.077        0.683
  WS02618401           JUNCTION        3.83          0.000        0.000
  WSA1649              JUNCTION        3.83          0.000        0.000
  
  
  *********************
  Node Flooding Summary
  *********************
  
  Flooding refers to all water that overflows a node, whether it ponds or not.
  --------------------------------------------------------------------------
                                                             Total   Maximum
                                 Maximum   Time of Max       Flood    Ponded
                        Hours       Rate    Occurrence      Volume     Depth
  Node                 Flooded       MLD   days hr:min    10^6 ltr    Meters
  --------------------------------------------------------------------------
  CC-storage              2.05     10.28      0  03:01       0.479     0.000
  
  
  **********************
  Storage Volume Summary
  **********************
  
  --------------------------------------------------------------------------------------------------
                         Average     Avg  Evap Exfil       Maximum     Max    Time of Max    Maximum
                          Volume    Pcnt  Pcnt  Pcnt        Volume    Pcnt     Occurrence    Outflow
  Storage Unit           1000 m3    Full  Loss  Loss       1000 m3    Full    days hr:min        MLD
  --------------------------------------------------------------------------------------------------
  CC-storage               0.146      91     0     0         0.159     100       0  01:46       0.00
  
  
  ***********************
  Outfall Loading Summary
  ***********************
  
  ---------------------------------------------------------------------------------------------------------------------------------
                         Flow       Avg       Max       Total         Total         Total         Total         Total         Total
                         Freq      Flow      Flow      Volume           COD         NH3-N            TN            TP            SS
  Outfall Node           Pcnt       MLD       MLD    10^6 ltr            kg            kg            kg            kg            kg
  ---------------------------------------------------------------------------------------------------------------------------------
  outfall-5             75.22      6.19      9.52       0.344        40.239         0.000         0.000         0.000         0.000
  outfall-14            75.36      4.70      7.50       0.261        34.642         0.000         0.000         0.000         0.000
  outfall-16             0.00      0.00      0.00       0.000         0.000         0.000         0.000         0.000         0.000
  ---------------------------------------------------------------------------------------------------------------------------------
  System                50.19     10.88     17.02       0.605        74.882         0.000         0.000         0.000         0.000
  
  
  ********************
  Link Flow Summary
  ********************
  
  -----------------------------------------------------------------------------
                                 Maximum  Time of Max   Maximum    Max/    Max/
                                  |Flow|   Occurrence   |Veloc|    Full    Full
  Link                 Type          MLD  days hr:min     m/sec    Flow   Depth
  -----------------------------------------------------------------------------
  WSL2038              CONDUIT      3.11     0  03:01      0.43    0.15    0.72
  WSL2039              CONDUIT      3.30     0  03:01      0.65    0.17    0.80
  WSL2041              CONDUIT      3.21     0  03:01      0.47    0.16    0.76
  WSL2294              CONDUIT      3.66     0  03:01      0.43    0.12    1.00
  WSL2295              CONDUIT      3.74     0  03:01      0.50    0.17    1.00
  WSL2296              CONDUIT      7.04     0  03:01      0.63    0.04    1.00
  WSL2297              CONDUIT      7.19     0  03:01      0.34    0.14    1.00
  WSL2298              CONDUIT      6.84     0  03:01      0.87    0.31    1.00
  WSL2301              CONDUIT      7.26     0  03:01      0.29    0.07    1.00
  WSL2302              CONDUIT      7.46     0  03:01      0.23    0.09    1.00
  WSL2441              CONDUIT      3.59     0  03:01      0.44    0.09    1.00
  WSL2442              CONDUIT      3.07     0  02:12      0.63    0.08    1.00
  WSL2443              CONDUIT      2.90     0  02:11      0.73    0.05    1.00
  WSL2444              CONDUIT      3.02     0  02:11      0.86    0.05    1.00
  WSL2446              CONDUIT      3.91     0  02:28      0.82    0.07    1.00
  WSL2447              CONDUIT      4.17     0  02:13      0.65    0.21    1.00
  WSL2448              CONDUIT      4.17     0  02:13      0.52    0.12    1.00
  WSL2449              CONDUIT      4.33     0  02:29      0.50    0.15    1.00
  WSL2450              CONDUIT      4.44     0  02:29      0.58    0.09    1.00
  WSL2451              CONDUIT      4.51     0  02:29      0.55    0.29    1.00
  WSL2452              CONDUIT      4.58     0  02:29      0.56    0.09    1.00
  WSL2454              CONDUIT      4.70     0  02:29      0.70    0.11    1.00
  WSL2478              CONDUIT      4.84     0  02:29      0.60    0.17    1.00
  WSL2479              CONDUIT      5.53     0  02:29      0.54    0.11    1.00
  WSL2480              CONDUIT      4.53     0  03:02      0.56    0.21    0.99
  WSL2482              CONDUIT      4.34     0  03:02      0.49    0.11    0.93
  WSL2484              CONDUIT      3.42     0  03:01      0.60    0.05    0.79
  WSL2493              CONDUIT      2.97     0  02:12      0.51    0.05    1.00
  8                    CONDUIT      9.52     0  03:01      4.77    0.13    0.24
  19                   CONDUIT      0.00     0  00:00      0.00    0.00    0.00
  17                   CONDUIT      7.50     0  03:01      4.50    0.10    0.21
  CC-Pump-1            PUMP         0.00     0  00:00              0.00
  CC-Pump-2            PUMP         0.00     0  00:00              0.00
  
  
  ***************************
  Flow Classification Summary
  ***************************
  
  -------------------------------------------------------------------------------------
                      Adjusted    ---------- Fraction of Time in Flow Class ---------- 
                       /Actual         Up    Down  Sub   Sup   Up    Down  Norm  Inlet 
  Conduit               Length    Dry  Dry   Dry   Crit  Crit  Crit  Crit  Ltd   Ctrl  
  -------------------------------------------------------------------------------------
  WSL2038                 1.00   0.00  0.00  0.00  1.00  0.00  0.00  0.00  0.01  0.00
  WSL2039                 1.00   0.00  0.00  0.00  1.00  0.00  0.00  0.00  0.00  0.00
  WSL2041                 1.00   0.00  0.00  0.00  1.00  0.00  0.00  0.00  0.41  0.00
  WSL2294                 1.00   0.00  0.00  0.00  1.00  0.00  0.00  0.00  0.00  0.00
  WSL2295                 1.00   0.00  0.00  0.00  1.00  0.00  0.00  0.00  0.00  0.00
  WSL2296                 1.00   0.00  0.00  0.00  1.00  0.00  0.00  0.00  0.17  0.00
  WSL2297                 1.00   0.00  0.00  0.00  1.00  0.00  0.00  0.00  0.00  0.00
  WSL2298                 1.00   0.00  0.00  0.00  0.97  0.03  0.00  0.00  0.00  0.00
  WSL2301                 1.00   0.00  0.00  0.00  1.00  0.00  0.00  0.00  0.04  0.00
  WSL2302                 1.00   0.00  0.00  0.00  1.00  0.00  0.00  0.00  0.01  0.00
  WSL2441                 1.00   0.00  0.00  0.00  1.00  0.00  0.00  0.00  0.00  0.00
  WSL2442                 1.00   0.00  0.00  0.00  1.00  0.00  0.00  0.00  0.17  0.00
  WSL2443                 1.00   0.00  0.00  0.00  1.00  0.00  0.00  0.00  0.31  0.00
  WSL2444                 1.00   0.00  0.00  0.00  0.90  0.10  0.00  0.00  0.26  0.00
  WSL2446                 1.00   0.00  0.00  0.00  0.88  0.12  0.00  0.00  0.04  0.00
  WSL2447                 1.00   0.00  0.00  0.00  1.00  0.00  0.00  0.00  0.00  0.00
  WSL2448                 1.00   0.00  0.00  0.00  1.00  0.00  0.00  0.00  0.00  0.00
  WSL2449                 1.00   0.00  0.00  0.00  1.00  0.00  0.00  0.00  0.03  0.00
  WSL2450                 1.00   0.00  0.00  0.00  1.00  0.00  0.00  0.00  0.47  0.00
  WSL2451                 1.00   0.00  0.00  0.00  1.00  0.00  0.00  0.00  0.00  0.00
  WSL2452                 1.00   0.00  0.00  0.00  1.00  0.00  0.00  0.00  0.48  0.00
  WSL2454                 1.00   0.00  0.00  0.00  1.00  0.00  0.00  0.00  0.02  0.00
  WSL2478                 1.00   0.00  0.00  0.00  1.00  0.00  0.00  0.00  0.00  0.00
  WSL2479                 1.00   0.00  0.00  0.00  1.00  0.00  0.00  0.00  0.53  0.00
  WSL2480                 1.00   0.00  0.00  0.00  1.00  0.00  0.00  0.00  0.00  0.00
  WSL2482                 1.00   0.00  0.00  0.00  1.00  0.00  0.00  0.00  0.55  0.00
  WSL2484                 1.00   0.00  0.00  0.00  1.00  0.00  0.00  0.00  0.57  0.00
  WSL2493                 1.00   0.00  0.00  0.00  1.00  0.00  0.00  0.00  0.05  0.00
  8                       1.00   0.25  0.00  0.00  0.00  0.75  0.00  0.00  0.01  0.00
  19                      1.00   1.00  0.00  0.00  0.00  0.00  0.00  0.00  0.00  0.00
  17                      1.00   0.25  0.00  0.00  0.00  0.75  0.00  0.00  0.00  0.00
  
  
  *************************
  Conduit Surcharge Summary
  *************************
  
  ----------------------------------------------------------------------------
                                                           Hours        Hours 
                         --------- Hours Full --------   Above Full   Capacity
  Conduit                Both Ends  Upstream  Dnstream   Normal Flow   Limited
  ----------------------------------------------------------------------------
  WSL2294                     2.02      2.02      2.04      0.01         0.01
  WSL2295                     2.04      2.04      2.05      0.01         0.01
  WSL2296                     2.06      2.06      2.74      0.01         0.01
  WSL2297                     2.38      2.38      2.40      0.01         0.01
  WSL2298                     2.05      2.05      2.06      0.01         0.01
  WSL2301                     2.40      2.40      2.50      0.01         0.01
  WSL2302                     2.50      2.50      2.58      0.01         0.01
  WSL2441                     1.99      1.99      2.02      0.01         0.01
  WSL2442                     1.99      1.99      2.04      0.01         0.01
  WSL2443                     1.86      1.86      1.99      0.01         0.01
  WSL2444                     1.74      1.74      1.86      0.01         0.01
  WSL2446                     1.62      1.62      1.74      0.01         0.01
  WSL2447                     1.61      1.61      1.62      0.01         0.01
  WSL2448                     1.60      1.60      1.61      0.01         0.01
  WSL2449                     1.58      1.58      1.60      0.01         0.01
  WSL2450                     1.51      1.51      1.58      0.01         0.01
  WSL2451                     1.50      1.50      1.51      0.01         0.01
  WSL2452                     1.41      1.41      1.50      0.01         0.01
  WSL2454                     1.37      1.37      1.41      0.01         0.01
  WSL2478                     1.36      1.36      1.37      0.01         0.01
  WSL2479                     0.01      0.01      1.36      0.01         0.01
  WSL2493                     1.95      1.95      1.99      0.01         0.01
  
  
  ***************
  Pumping Summary
  ***************
  
  ---------------------------------------------------------------------------------------------------------
                                                  Min       Avg       Max     Total     Power    % Time Off
                        Percent   Number of      Flow      Flow      Flow    Volume     Usage    Pump Curve
  Pump                 Utilized   Start-Ups       MLD       MLD       MLD  10^6 ltr     Kw-hr    Low   High
  ---------------------------------------------------------------------------------------------------------
  CC-Pump-1                0.00           0      0.00      0.00      0.00     0.000      0.00    0.0    0.0
  CC-Pump-2                0.00           0      0.00      0.00      0.00     0.000      0.00    0.0    0.0
  
  
  ***************************
  Link Pollutant Load Summary
  ***************************
  
  ------------------------------------------------------------------------------------------
                                 COD         NH3-N            TN            TP            SS
  Link                            kg            kg            kg            kg            kg
  ------------------------------------------------------------------------------------------
  WSL2038                     12.226         0.000         0.000         0.000         0.000
  WSL2039                     17.070         0.000         0.000         0.000         0.000
  WSL2041                     14.932         0.000         0.000         0.000         0.000
  WSL2294                     47.903         0.000         0.000         0.000         0.000
  WSL2295                     41.702         0.000         0.000         0.000         0.000
  WSL2296                     42.422         0.000         0.000         0.000         0.000
  WSL2297                     41.225         0.000         0.000         0.000         0.000
  WSL2298                     39.553         0.000         0.000         0.000         0.000
  WSL2301                     39.774         0.000         0.000         0.000         0.000
  WSL2302                     40.115         0.000         0.000         0.000         0.000
  WSL2441                     52.235         0.000         0.000         0.000         0.000
  WSL2442                     38.441         0.000         0.000         0.000         0.000
  WSL2443                     37.397         0.000         0.000         0.000         0.000
  WSL2444                     36.876         0.000         0.000         0.000         0.000
  WSL2446                     36.659         0.000         0.000         0.000         0.000
  WSL2447                     36.213         0.000         0.000         0.000         0.000
  WSL2448                     35.727         0.000         0.000         0.000         0.000
  WSL2449                     35.527         0.000         0.000         0.000         0.000
  WSL2450                     35.530         0.000         0.000         0.000         0.000
  WSL2451                     35.504         0.000         0.000         0.000         0.000
  WSL2452                     35.721         0.000         0.000         0.000         0.000
  WSL2454                     34.718         0.000         0.000         0.000         0.000
  WSL2478                     34.023         0.000         0.000         0.000         0.000
  WSL2479                     36.506         0.000         0.000         0.000         0.000
  WSL2480                     29.275         0.000         0.000         0.000         0.000
  WSL2482                     25.263         0.000         0.000         0.000         0.000
  WSL2484                     19.785         0.000         0.000         0.000         0.000
  WSL2493                     38.314         0.000         0.000         0.000         0.000
  8                           40.239         0.000         0.000         0.000         0.000
  19                           0.000         0.000         0.000         0.000         0.000
  17                          34.642         0.000         0.000         0.000         0.000
  CC-Pump-1                    0.000         0.000         0.000         0.000         0.000
  CC-Pump-2                    0.000         0.000         0.000         0.000         0.000
  

  Analysis begun on:  Thu Aug 15 17:32:12 2019
  Analysis ended on:  Thu Aug 15 17:32:13 2019
  Total elapsed time: 00:00:01