
  EPA STORM WATER MANAGEMENT MODEL - VERSION 5.1 (Build 5.2.0.dev5)
  --------------------------------------------------------------

  
  *********************************************************
  NOTE: The summary statistics displayed in this report are
  based on results found at every computational time step,  
  not just on results from each reporting time step.
  *********************************************************
  
  ****************
  Analysis Options
  ****************
  Flow Units ............... MLD
  Process Models:
    Rainfall/Runoff ........ YES
    RDII ................... NO
    Snowmelt ............... NO
    Groundwater ............ NO
    Flow Routing ........... YES
    Ponding Allowed ........ NO
    Water Quality .......... YES
  Infiltration Method ...... GREEN_AMPT
  Flow Routing Method ...... DYNWAVE
  Surcharge Method ......... EXTRAN
  Starting Date ............ 08/28/2015 08:00:00
  Ending Date .............. 08/28/2015 11:50:00
  Antecedent Dry Days ...... 4.0
  Report Time Step ......... 00:01:00
  Wet Time Step ............ 00:01:00
  Dry Time Step ............ 00:01:00
  Routing Time Step ........ 5.00 sec
  Variable Time Step ....... YES
  Maximum Trials ........... 8
  Number of Threads ........ 1
  Head Tolerance ........... 0.001500 m
  
  
  **************************        Volume         Depth
  Runoff Quantity Continuity     hectare-m            mm
  **************************     ---------       -------
  Total Precipitation ......         0.589         9.528
  Evaporation Loss .........         0.000         0.000
  Infiltration Loss ........         0.354         5.719
  Surface Runoff ...........         0.093         1.508
  Final Storage ............         0.142         2.302
  Continuity Error (%) .....        -0.011
  
  
  **************************           COD         NH3-N            TN            TP            SS
  Runoff Quality Continuity             kg            kg            kg            kg            kg
  **************************    ----------    ----------    ----------    ----------    ----------
  Initial Buildup ..........      2504.640         0.000         0.000         0.000         0.000
  Surface Buildup ..........        20.882         0.000         0.000         0.000         0.000
  Wet Deposition ...........         0.000         0.000         0.000         0.000         0.000
  Sweeping Removal .........         0.000         0.000         0.000         0.000         0.000
  Infiltration Loss ........        26.394         0.000         0.000         0.000         0.000
  BMP Removal ..............         0.000         0.000         0.000         0.000         0.000
  Surface Runoff ...........        82.466         0.000         0.000         0.000         0.000
  Remaining Buildup ........      2416.359         0.000         0.000         0.000         0.000
  Continuity Error (%) .....         0.012         0.000         0.000         0.000         0.000
  
  
  **************************        Volume        Volume
  Flow Routing Continuity        hectare-m      10^6 ltr
  **************************     ---------     ---------
  Dry Weather Inflow .......         0.000         0.000
  Wet Weather Inflow .......         0.093         0.930
  Groundwater Inflow .......         0.000         0.000
  RDII Inflow ..............         0.000         0.000
  External Inflow ..........         0.082         0.822
  External Outflow .........         0.147         1.466
  Flooding Loss ............         0.000         0.000
  Evaporation Loss .........         0.000         0.000
  Exfiltration Loss ........         0.000         0.000
  Initial Stored Volume ....         0.000         0.000
  Final Stored Volume ......         0.046         0.461
  Continuity Error (%) .....        -9.965
  
  
  **************************           COD         NH3-N            TN            TP            SS
  Quality Routing Continuity            kg            kg            kg            kg            kg
  **************************    ----------    ----------    ----------    ----------    ----------
  Dry Weather Inflow .......         0.000         0.000         0.000         0.000         0.000
  Wet Weather Inflow .......        82.307         0.000         0.000         0.000         0.000
  Groundwater Inflow .......         0.000         0.000         0.000         0.000         0.000
  RDII Inflow ..............         0.000         0.000         0.000         0.000         0.000
  External Inflow ..........       137.264         0.000         0.000         0.000         0.000
  External Outflow .........       145.711         0.000         0.000         0.000         0.000
  Flooding Loss ............         0.000         0.000         0.000         0.000         0.000
  Exfiltration Loss ........         0.000         0.000         0.000         0.000         0.000
  Mass Reacted .............         0.000         0.000         0.000         0.000         0.000
  Initial Stored Mass ......         0.000         0.000         0.000         0.000         0.000
  Final Stored Mass ........        48.522         0.000         0.000         0.000         0.000
  Continuity Error (%) .....        11.540         0.000         0.000         0.000         0.000
  
  
  *************************
  Highest Continuity Errors
  *************************
  Node WS02006230 (5.63%)
  Node WS02006115 (5.56%)
  Node WS02006116 (5.03%)
  Node WS02006112 (4.66%)
  Node WS02004401 (4.51%)
  
  
  ***************************
  Time-Step Critical Elements
  ***************************
  Link 8 (77.12%)
  Link WSL2448 (11.03%)
  Link 17 (9.28%)
  
  
  ********************************
  Highest Flow Instability Indexes
  ********************************
  Link WSL2302 (3)
  Link WSL2301 (3)
  Link WSL2297 (2)
  Link WSL2296 (2)
  Link WSL2298 (2)
  
  
  *************************
  Routing Time Step Summary
  *************************
  Minimum Time Step           :     0.44 sec
  Average Time Step           :     1.08 sec
  Maximum Time Step           :     5.00 sec
  Percent in Steady State     :    -0.00
  Average Iterations per Step :     2.16
  Percent Not Converging      :     1.51
  
  
  ***************************
  Subcatchment Runoff Summary
  ***************************
  
  ------------------------------------------------------------------------------------------------------------------------------
                            Total      Total      Total      Total     Imperv       Perv      Total       Total     Peak  Runoff
                           Precip      Runon       Evap      Infil     Runoff     Runoff     Runoff      Runoff   Runoff   Coeff
  Subcatchment                 mm         mm         mm         mm         mm         mm         mm    10^6 ltr      MLD
  ------------------------------------------------------------------------------------------------------------------------------
  1                          9.53       6.88       0.00       6.50       3.83       1.49       5.32        0.06     1.60   0.324
  2                          9.53       0.00       0.00       5.51       2.17       0.24       2.41        0.08     2.16   0.253
  3                          9.53       0.00       0.00       5.52       2.12       0.19       2.32        0.12     3.08   0.243
  35                         9.53       0.00       0.00       5.51       2.19       0.25       2.43        0.07     1.98   0.255
  36                         9.53       4.44       0.00       6.27       3.07       0.53       3.60        0.21     5.13   0.257
  40                         9.53       1.25       0.00       5.75       2.44       0.32       2.76        0.11     2.79   0.256
  41                         9.53       0.00       0.00       5.50       2.23       0.30       2.53        0.05     1.35   0.266
  42                         9.53       0.00       0.00       5.51       2.21       0.28       2.50        0.06     1.55   0.262
  43                         9.53       0.00       0.00       5.45       2.33       0.62       2.94        0.01     0.33   0.309
  44                         9.53      59.95       0.00      10.19      16.78      26.17      42.95        0.16     3.39   0.618
  45                         9.53       0.00       0.00       5.49       2.28       0.40       2.68        0.03     0.79   0.281
  46                         9.53       3.67       0.00       6.14       3.05       0.73       3.78        0.08     2.08   0.287
  47                         9.53       0.00       0.00       5.49       2.27       0.39       2.66        0.03     0.84   0.279
  48                         9.53       1.86       0.00       5.84       2.68       0.57       3.24        0.05     1.38   0.285
  55                         9.53       2.75       0.00       5.96       2.93       0.91       3.85        0.03     0.88   0.313
  56                         9.53       4.04       0.00       6.18       3.13       0.78       3.91        0.08     2.13   0.288
  57                         9.53       0.00       0.00       5.52       2.13       0.20       2.32        0.12     3.03   0.244
  59                         9.53       0.00       0.00       5.48       2.29       0.44       2.72        0.02     0.66   0.286
  60                         9.53       6.08       0.00       6.41       3.76       1.95       5.71        0.03     0.79   0.366
  61                         9.53       0.00       0.00       5.54       1.90       0.11       2.01        0.36     8.82   0.211
  64                         9.53       0.00       0.00       5.49       2.27       0.37       2.64        0.03     0.90   0.277
  
  
  ****************************
  Subcatchment Washoff Summary
  ****************************
  
  ------------------------------------------------------------------------------------------
                                 COD         NH3-N            TN            TP            SS
  Subcatchment                    kg            kg            kg            kg            kg
  ------------------------------------------------------------------------------------------
  1                            3.970         0.000         0.000         0.000         0.000
  2                            0.000         0.000         0.000         0.000         0.000
  3                            0.000         0.000         0.000         0.000         0.000
  35                           6.283         0.000         0.000         0.000         0.000
  36                          32.452         0.000         0.000         0.000         0.000
  40                          11.272         0.000         0.000         0.000         0.000
  41                           4.351         0.000         0.000         0.000         0.000
  42                           4.971         0.000         0.000         0.000         0.000
  43                           1.099         0.000         0.000         0.000         0.000
  44                          38.399         0.000         0.000         0.000         0.000
  45                           2.582         0.000         0.000         0.000         0.000
  46                          12.411         0.000         0.000         0.000         0.000
  47                           2.746         0.000         0.000         0.000         0.000
  48                           6.330         0.000         0.000         0.000         0.000
  55                           4.693         0.000         0.000         0.000         0.000
  56                          13.565         0.000         0.000         0.000         0.000
  57                           9.466         0.000         0.000         0.000         0.000
  59                           2.185         0.000         0.000         0.000         0.000
  60                           6.229         0.000         0.000         0.000         0.000
  61                          25.938         0.000         0.000         0.000         0.000
  64                           2.928         0.000         0.000         0.000         0.000
  ------------------------------------------------------------------------------------------
  System                     191.870         0.000         0.000         0.000         0.000
  
  
  ******************
  Node Depth Summary
  ******************
  
  ---------------------------------------------------------------------------------
                                 Average  Maximum  Maximum  Time of Max    Reported
                                   Depth    Depth      HGL   Occurrence   Max Depth
  Node                 Type       Meters   Meters   Meters  days hr:min      Meters
  ---------------------------------------------------------------------------------
  WS01000070           JUNCTION     0.00     0.00     0.00     0  00:00        0.00
  WS01000323           JUNCTION     0.00     0.00     0.00     0  00:00        0.00
  WS01000533           JUNCTION     0.00     0.00     6.86     0  00:00        0.00
  WS01005172           JUNCTION     0.00     0.00     0.00     0  00:00        0.00
  WS01005181           JUNCTION     0.00     0.00     0.00     0  00:00        0.00
  WS01009841           JUNCTION     0.00     0.00     0.00     0  00:00        0.00
  WS02000078           JUNCTION     0.00     0.00     0.00     0  00:00        0.00
  WS02000112           JUNCTION     0.00     0.00     0.00     0  00:00        0.00
  WS02000136           JUNCTION     0.00     0.00     0.00     0  00:00        0.00
  WS02004053           JUNCTION     0.00     0.00     0.00     0  00:00        0.00
  WS02004401           JUNCTION     2.12     2.31     8.31     0  03:23        2.31
  WS02005192           JUNCTION     0.38     0.65     8.52     0  03:20        0.65
  WS02005193           JUNCTION     0.43     0.70     8.52     0  03:20        0.70
  WS02005196           JUNCTION     0.40     0.67     8.52     0  03:20        0.67
  WS02006109           JUNCTION     1.52     1.71     8.33     0  03:23        1.71
  WS02006110           JUNCTION     1.54     1.73     8.33     0  03:23        1.73
  WS02006111           JUNCTION     1.55     1.74     8.32     0  03:23        1.74
  WS02006112           JUNCTION     2.00     2.20     8.32     0  03:23        2.20
  WS02006113           JUNCTION     1.55     1.74     8.33     0  03:23        1.74
  WS02006115           JUNCTION     2.02     2.22     8.32     0  03:23        2.22
  WS02006116           JUNCTION     2.08     2.28     8.32     0  03:22        2.28
  WS02006183           JUNCTION     0.00     0.00     0.00     0  00:00        0.00
  WS02006228           JUNCTION     1.49     1.69     8.34     0  01:46        1.69
  WS02006229           JUNCTION     1.46     1.66     8.35     0  01:46        1.65
  WS02006230           JUNCTION     1.40     1.60     8.35     0  01:46        1.59
  WS02006231           JUNCTION     1.26     1.45     8.35     0  01:46        1.45
  WS02006232           JUNCTION     1.13     1.33     8.36     0  01:46        1.32
  WS02006234           JUNCTION     1.02     1.20     8.36     0  01:46        1.19
  WS02006235           JUNCTION     1.01     1.19     8.36     0  01:46        1.18
  WS02006238           JUNCTION     1.00     1.18     8.36     0  01:46        1.17
  WS02006239           JUNCTION     0.97     1.15     8.36     0  03:20        1.15
  WS02006242           JUNCTION     0.89     1.06     8.36     0  03:20        1.06
  WS02006240           JUNCTION     0.90     1.07     8.36     0  03:20        1.07
  WS02006243           JUNCTION     0.78     0.95     8.37     0  03:20        0.94
  WS02006245           JUNCTION     0.72     0.88     8.37     0  03:20        0.88
  WS02006247           JUNCTION     0.70     0.86     8.37     0  03:20        0.86
  WS02006248           JUNCTION     0.63     0.78     8.37     0  03:20        0.78
  WS02006249           JUNCTION     0.62     0.81     8.41     0  03:20        0.81
  WS02006251           JUNCTION     0.56     0.81     8.48     0  03:20        0.81
  WS02006253           JUNCTION     0.45     0.72     8.52     0  03:20        0.72
  WS02618401           JUNCTION     0.00     0.00     0.00     0  00:00        0.00
  WSA1649              JUNCTION     0.00     0.00     0.00     0  00:00        0.00
  outfall-5            OUTFALL      0.09     0.18     7.85     0  03:20        0.18
  outfall-14           OUTFALL      0.07     0.11     7.77     0  03:23        0.11
  outfall-16           OUTFALL      0.00     0.00     8.39     0  00:00        0.00
  CC-storage           STORAGE      1.00     4.76     7.94     0  03:12        4.76
  
  
  *******************
  Node Inflow Summary
  *******************
  
  -------------------------------------------------------------------------------------------------
                                  Maximum  Maximum                  Lateral       Total        Flow
                                  Lateral    Total  Time of Max      Inflow      Inflow     Balance
                                   Inflow   Inflow   Occurrence      Volume      Volume       Error
  Node                 Type           MLD      MLD  days hr:min    10^6 ltr    10^6 ltr     Percent
  -------------------------------------------------------------------------------------------------
  WS01000070           JUNCTION      0.00     0.00     0  00:00           0           0       0.000 ltr
  WS01000323           JUNCTION      0.00     0.00     0  00:00           0           0       0.000 ltr
  WS01000533           JUNCTION      0.00     0.00     0  00:00           0           0       0.000 ltr
  WS01005172           JUNCTION      0.00     0.00     0  00:00           0           0       0.000 ltr
  WS01005181           JUNCTION      0.00     0.00     0  00:00           0           0       0.000 ltr
  WS01009841           JUNCTION      0.00     0.00     0  00:00           0           0       0.000 ltr
  WS02000078           JUNCTION      0.00     0.00     0  00:00           0           0       0.000 ltr
  WS02000112           JUNCTION      0.00     0.00     0  00:00           0           0       0.000 ltr
  WS02000136           JUNCTION      0.00     0.00     0  00:00           0           0       0.000 ltr
  WS02004053           JUNCTION      0.00     0.00     0  00:00           0           0       0.000 ltr
  WS02004401           JUNCTION      0.05    13.81     0  03:23      0.0086       0.625       4.724
  WS02005192           JUNCTION      3.12     3.35     0  01:46       0.133       0.138       1.841
  WS02005193           JUNCTION      0.09    11.79     0  03:23       0.014       0.195       3.707
  WS02005196           JUNCTION      0.12     6.46     0  01:46      0.0183       0.168       3.900
  WS02006109           JUNCTION      0.08    13.99     0  00:31      0.0129       0.587       4.272
  WS02006110           JUNCTION      0.08    12.51     0  00:31      0.0126       0.574       4.459
  WS02006111           JUNCTION      0.24    13.35     0  03:23      0.0352       0.688       3.069
  WS02006112           JUNCTION      0.18    13.49     0  03:23      0.0263        0.69       4.888
  WS02006113           JUNCTION      3.22    13.15     0  03:23       0.143       0.685       3.574
  WS02006115           JUNCTION      0.08    13.57     0  03:23      0.0129        0.67       5.890
  WS02006116           JUNCTION      0.24    13.76     0  03:23      0.0347       0.666       5.296
  WS02006183           JUNCTION      0.00     0.00     0  00:00           0           0       0.000 ltr
  WS02006228           JUNCTION      3.54    13.97     0  00:30       0.186         0.6       3.068
  WS02006229           JUNCTION      0.13    14.32     0  00:30      0.0193       0.441       3.685
  WS02006230           JUNCTION      0.07    14.11     0  00:30      0.0111       0.448       5.966
  WS02006231           JUNCTION      0.13    13.87     0  01:09      0.0197       0.451       3.335
  WS02006232           JUNCTION      2.24    13.34     0  00:29      0.0942       0.486       3.258
  WS02006234           JUNCTION      0.14    13.04     0  00:29      0.0208       0.443       3.183
  WS02006235           JUNCTION      0.14    12.71     0  00:28      0.0215       0.435       1.824
  WS02006238           JUNCTION      0.15    12.87     0  01:08      0.0226       0.431       2.357
  WS02006239           JUNCTION      0.11    12.92     0  01:08      0.0167       0.429       3.689
  WS02006242           JUNCTION      0.08    13.80     0  01:07      0.0124       0.426       4.484
  WS02006240           JUNCTION      0.06    13.15     0  01:07     0.00952       0.425       3.991
  WS02006243           JUNCTION      0.17    14.10     0  01:06      0.0259       0.427       4.150
  WS02006245           JUNCTION      0.07    13.95     0  01:06      0.0109       0.413       3.267
  WS02006247           JUNCTION      1.73    14.10     0  01:06      0.0883       0.446       2.581
  WS02006248           JUNCTION      0.12    37.33     0  03:20      0.0185        1.17       0.898
  WS02006249           JUNCTION      0.19    37.20     0  03:20      0.0275        1.06       1.342
  WS02006251           JUNCTION      0.94    37.00     0  03:20      0.0413        1.05       1.374
  WS02006253           JUNCTION      0.11    36.45     0  03:20      0.0166        1.04       0.675
  WS02618401           JUNCTION      0.00     0.00     0  00:00           0           0       0.000 ltr
  WSA1649              JUNCTION      0.00     0.00     0  00:00           0           0       0.000 ltr
  outfall-5            OUTFALL       0.00    32.76     0  03:20           0       0.878       0.000
  outfall-14           OUTFALL       0.00    13.82     0  03:23           0       0.587       0.000
  outfall-16           OUTFALL       0.00     0.00     0  00:00           0           0       0.000 ltr
  CC-storage           STORAGE      10.28    10.28     0  03:01       0.638       0.638     -24.737
  
  
  **********************
  Node Surcharge Summary
  **********************
  
  Surcharging occurs when water rises above the top of the highest conduit.
  ---------------------------------------------------------------------
                                               Max. Height   Min. Depth
                                   Hours       Above Crown    Below Rim
  Node                 Type      Surcharged         Meters       Meters
  ---------------------------------------------------------------------
  WS01000070           JUNCTION        3.83          0.000        0.000
  WS01000323           JUNCTION        3.83          0.000        0.000
  WS01000533           JUNCTION        3.83          0.000        2.147
  WS01005172           JUNCTION        3.83          0.000        0.000
  WS01005181           JUNCTION        3.83          0.000        0.000
  WS01009841           JUNCTION        3.83          0.000        0.000
  WS02000078           JUNCTION        3.83          0.000        0.000
  WS02000112           JUNCTION        3.83          0.000        0.000
  WS02000136           JUNCTION        3.83          0.000        0.000
  WS02004053           JUNCTION        3.83          0.000        0.000
  WS02005192           JUNCTION        0.07          0.052        2.767
  WS02005193           JUNCTION        0.10          0.102        2.515
  WS02005196           JUNCTION        0.08          0.072        2.634
  WS02006109           JUNCTION        2.59          0.913        0.925
  WS02006110           JUNCTION        2.60          0.929        0.916
  WS02006111           JUNCTION        2.62          0.942        0.935
  WS02006112           JUNCTION        2.81          1.199        0.484
  WS02006113           JUNCTION        2.61          0.936        0.997
  WS02006115           JUNCTION        2.85          1.217        1.082
  WS02006116           JUNCTION        2.97          1.276        1.074
  WS02006183           JUNCTION        3.83          0.000        0.000
  WS02006228           JUNCTION        2.58          0.893        1.338
  WS02006229           JUNCTION        2.56          0.858        1.596
  WS02006231           JUNCTION        2.49          0.753        0.790
  WS02006232           JUNCTION        2.35          0.628        0.861
  WS02006234           JUNCTION        2.20          0.497        0.760
  WS02006235           JUNCTION        2.19          0.489        0.805
  WS02006238           JUNCTION        2.18          0.478        0.956
  WS02006239           JUNCTION        2.15          0.447        0.882
  WS02006242           JUNCTION        2.11          0.363        0.486
  WS02006240           JUNCTION        2.11          0.370        1.033
  WS02006243           JUNCTION        2.08          0.247        0.533
  WS02006245           JUNCTION        2.07          0.180        0.675
  WS02006247           JUNCTION        2.07          0.162        0.598
  WS02006249           JUNCTION        0.55          0.108        0.280
  WS02006251           JUNCTION        0.15          0.113        1.397
  WS02006253           JUNCTION        0.01          0.022        2.432
  WS02618401           JUNCTION        3.83          0.000        0.000
  WSA1649              JUNCTION        3.83          0.000        0.000
  
  
  *********************
  Node Flooding Summary
  *********************
  
  No nodes were flooded.
  
  
  **********************
  Storage Volume Summary
  **********************
  
  --------------------------------------------------------------------------------------------------
                         Average     Avg  Evap Exfil       Maximum     Max    Time of Max    Maximum
                          Volume    Pcnt  Pcnt  Pcnt        Volume    Pcnt     Occurrence    Outflow
  Storage Unit           1000 m3    Full  Loss  Loss       1000 m3    Full    days hr:min        MLD
  --------------------------------------------------------------------------------------------------
  CC-storage               0.028      18     0     0         0.134      85       0  03:12      34.56
  
  
  ***********************
  Outfall Loading Summary
  ***********************
  
  ---------------------------------------------------------------------------------------------------------------------------------
                         Flow       Avg       Max       Total         Total         Total         Total         Total         Total
                         Freq      Flow      Flow      Volume           COD         NH3-N            TN            TP            SS
  Outfall Node           Pcnt       MLD       MLD    10^6 ltr            kg            kg            kg            kg            kg
  ---------------------------------------------------------------------------------------------------------------------------------
  outfall-5             86.57     11.05     32.76       0.878        63.888         0.000         0.000         0.000         0.000
  outfall-14            86.60      7.15     13.82       0.587        81.831         0.000         0.000         0.000         0.000
  outfall-16             0.00      0.00      0.00       0.000         0.000         0.000         0.000         0.000         0.000
  ---------------------------------------------------------------------------------------------------------------------------------
  System                57.72     18.20     45.35       1.466       145.719         0.000         0.000         0.000         0.000
  
  
  ********************
  Link Flow Summary
  ********************
  
  -----------------------------------------------------------------------------
                                 Maximum  Time of Max   Maximum    Max/    Max/
                                  |Flow|   Occurrence   |Veloc|    Full    Full
  Link                 Type          MLD  days hr:min     m/sec    Flow   Depth
  -----------------------------------------------------------------------------
  WSL2038              CONDUIT      4.73     0  03:23      0.35    0.24    1.00
  WSL2039              CONDUIT     15.38     0  03:23      0.72    0.79    1.00
  WSL2041              CONDUIT     11.71     0  03:23      0.60    0.57    1.00
  WSL2294              CONDUIT     12.43     0  00:31      0.89    0.42    1.00
  WSL2295              CONDUIT     11.98     0  03:23      0.94    0.54    1.00
  WSL2296              CONDUIT     13.35     0  03:23      0.78    0.08    1.00
  WSL2297              CONDUIT     13.49     0  03:23      0.36    0.26    1.00
  WSL2298              CONDUIT     13.15     0  03:23      1.55    0.61    1.00
  WSL2301              CONDUIT     13.57     0  03:23      0.29    0.13    1.00
  WSL2302              CONDUIT     13.76     0  03:23      0.23    0.17    1.00
  WSL2441              CONDUIT     13.91     0  00:31      0.96    0.36    1.00
  WSL2442              CONDUIT     14.19     0  00:30      1.15    0.36    1.00
  WSL2443              CONDUIT     14.03     0  00:30      1.28    0.22    1.00
  WSL2444              CONDUIT     13.73     0  01:09      1.44    0.22    1.00
  WSL2446              CONDUIT     13.26     0  00:29      1.43    0.23    1.00
  WSL2447              CONDUIT     12.91     0  00:29      1.21    0.66    1.00
  WSL2448              CONDUIT     12.57     0  00:28      1.02    0.35    1.00
  WSL2449              CONDUIT     12.71     0  01:08      0.99    0.44    1.00
  WSL2450              CONDUIT     12.81     0  01:08      1.04    0.27    1.00
  WSL2451              CONDUIT     13.09     0  01:07      1.02    0.85    1.00
  WSL2452              CONDUIT     13.72     0  01:07      1.09    0.26    1.00
  WSL2454              CONDUIT     13.93     0  01:06      1.23    0.33    1.00
  WSL2478              CONDUIT     13.88     0  01:06      1.11    0.49    1.00
  WSL2479              CONDUIT     13.93     0  01:06      1.14    0.26    1.00
  WSL2480              CONDUIT     37.22     0  03:20      1.13    1.72    1.00
  WSL2482              CONDUIT     37.05     0  03:20      1.11    0.96    1.00
  WSL2484              CONDUIT     36.62     0  03:20      1.33    0.52    1.00
  WSL2493              CONDUIT     13.78     0  00:30      1.00    0.23    1.00
  8                    CONDUIT     32.76     0  03:20      6.73    0.43    0.46
  19                   CONDUIT      0.00     0  00:00      0.00    0.00    0.00
  17                   CONDUIT     13.82     0  03:23      5.37    0.18    0.29
  CC-Pump-1            PUMP        17.28     0  03:20              1.00
  CC-Pump-2            PUMP        17.28     0  02:30              1.00
  
  
  ***************************
  Flow Classification Summary
  ***************************
  
  -------------------------------------------------------------------------------------
                      Adjusted    ---------- Fraction of Time in Flow Class ---------- 
                       /Actual         Up    Down  Sub   Sup   Up    Down  Norm  Inlet 
  Conduit               Length    Dry  Dry   Dry   Crit  Crit  Crit  Crit  Ltd   Ctrl  
  -------------------------------------------------------------------------------------
  WSL2038                 1.00   0.00  0.00  0.00  1.00  0.00  0.00  0.00  0.01  0.00
  WSL2039                 1.00   0.00  0.00  0.00  1.00  0.00  0.00  0.00  0.01  0.00
  WSL2041                 1.00   0.00  0.00  0.00  1.00  0.00  0.00  0.00  0.23  0.00
  WSL2294                 1.00   0.00  0.00  0.00  1.00  0.00  0.00  0.00  0.00  0.00
  WSL2295                 1.00   0.00  0.00  0.00  1.00  0.00  0.00  0.00  0.00  0.00
  WSL2296                 1.00   0.00  0.00  0.00  1.00  0.00  0.00  0.00  0.15  0.00
  WSL2297                 1.00   0.00  0.00  0.00  1.00  0.00  0.00  0.00  0.00  0.00
  WSL2298                 1.00   0.00  0.00  0.00  0.98  0.02  0.00  0.00  0.00  0.00
  WSL2301                 1.00   0.00  0.00  0.00  1.00  0.00  0.00  0.00  0.04  0.00
  WSL2302                 1.00   0.00  0.00  0.00  1.00  0.00  0.00  0.00  0.01  0.00
  WSL2441                 1.00   0.00  0.00  0.00  1.00  0.00  0.00  0.00  0.00  0.00
  WSL2442                 1.00   0.00  0.00  0.00  1.00  0.00  0.00  0.00  0.04  0.00
  WSL2443                 1.00   0.00  0.00  0.00  1.00  0.00  0.00  0.00  0.17  0.00
  WSL2444                 1.00   0.00  0.00  0.00  0.95  0.05  0.00  0.00  0.15  0.00
  WSL2446                 1.00   0.00  0.00  0.00  0.94  0.06  0.00  0.00  0.16  0.00
  WSL2447                 1.00   0.00  0.00  0.00  1.00  0.00  0.00  0.00  0.00  0.00
  WSL2448                 1.00   0.00  0.00  0.00  1.00  0.00  0.00  0.00  0.01  0.00
  WSL2449                 1.00   0.00  0.00  0.00  1.00  0.00  0.00  0.00  0.04  0.00
  WSL2450                 1.00   0.00  0.00  0.00  1.00  0.00  0.00  0.00  0.21  0.00
  WSL2451                 1.00   0.00  0.00  0.00  1.00  0.00  0.00  0.00  0.00  0.00
  WSL2452                 1.00   0.00  0.00  0.00  1.00  0.00  0.00  0.00  0.29  0.00
  WSL2454                 1.00   0.00  0.00  0.00  1.00  0.00  0.00  0.00  0.05  0.00
  WSL2478                 1.00   0.00  0.00  0.00  1.00  0.00  0.00  0.00  0.00  0.00
  WSL2479                 1.00   0.00  0.00  0.00  1.00  0.00  0.00  0.00  0.21  0.00
  WSL2480                 1.00   0.00  0.00  0.00  1.00  0.00  0.00  0.00  0.00  0.00
  WSL2482                 1.00   0.00  0.00  0.00  1.00  0.00  0.00  0.00  0.25  0.00
  WSL2484                 1.00   0.00  0.00  0.00  0.99  0.01  0.00  0.00  0.28  0.00
  WSL2493                 1.00   0.00  0.00  0.00  1.00  0.00  0.00  0.00  0.05  0.00
  8                       1.00   0.13  0.00  0.00  0.00  0.87  0.00  0.00  0.11  0.00
  19                      1.00   1.00  0.00  0.00  0.00  0.00  0.00  0.00  0.00  0.00
  17                      1.00   0.13  0.00  0.00  0.00  0.87  0.00  0.00  0.04  0.00
  
  
  *************************
  Conduit Surcharge Summary
  *************************
  
  ----------------------------------------------------------------------------
                                                           Hours        Hours 
                         --------- Hours Full --------   Above Full   Capacity
  Conduit                Both Ends  Upstream  Dnstream   Normal Flow   Limited
  ----------------------------------------------------------------------------
  WSL2038                     0.07      0.07      0.08      0.01         0.01
  WSL2039                     0.10      0.10      0.11      0.01         0.01
  WSL2041                     0.08      0.08      0.10      0.01         0.01
  WSL2294                     2.59      2.59      2.60      0.01         0.01
  WSL2295                     2.60      2.60      2.61      0.01         0.02
  WSL2296                     2.62      2.62      3.12      0.01         0.01
  WSL2297                     2.81      2.81      2.85      0.01         0.01
  WSL2298                     2.61      2.61      2.62      0.01         0.03
  WSL2301                     2.85      2.85      2.96      0.01         0.01
  WSL2302                     2.96      2.96      3.04      0.01         0.01
  WSL2441                     2.58      2.58      2.59      0.01         0.01
  WSL2442                     2.58      2.58      2.62      0.01         0.01
  WSL2443                     2.49      2.49      2.58      0.01         0.01
  WSL2444                     2.35      2.35      2.49      0.01         0.01
  WSL2446                     2.20      2.20      2.35      0.01         0.01
  WSL2447                     2.19      2.19      2.20      0.01         0.01
  WSL2448                     2.18      2.18      2.19      0.01         0.01
  WSL2449                     2.15      2.15      2.18      0.01         0.01
  WSL2450                     2.11      2.11      2.15      0.01         0.01
  WSL2451                     2.11      2.11      2.11      0.01         0.01
  WSL2452                     2.08      2.08      2.11      0.01         0.01
  WSL2454                     2.07      2.07      2.08      0.01         0.01
  WSL2478                     2.07      2.07      2.07      0.01         0.01
  WSL2479                     0.65      0.65      2.07      0.01         0.01
  WSL2480                     0.54      0.55      0.65      0.16         0.21
  WSL2482                     0.15      0.15      0.55      0.01         0.01
  WSL2484                     0.01      0.01      0.15      0.01         0.01
  WSL2493                     2.56      2.56      2.58      0.01         0.01
  
  
  ***************
  Pumping Summary
  ***************
  
  ---------------------------------------------------------------------------------------------------------
                                                  Min       Avg       Max     Total     Power    % Time Off
                        Percent   Number of      Flow      Flow      Flow    Volume     Usage    Pump Curve
  Pump                 Utilized   Start-Ups       MLD       MLD       MLD  10^6 ltr     Kw-hr    Low   High
  ---------------------------------------------------------------------------------------------------------
  CC-Pump-1               52.17           5      0.00      5.51     17.28     0.377      4.42    0.0    0.0
  CC-Pump-2               56.51           5      0.00      6.52     17.28     0.471      5.38    0.0    0.0
  
  
  ***************************
  Link Pollutant Load Summary
  ***************************
  
  ------------------------------------------------------------------------------------------
                                 COD         NH3-N            TN            TP            SS
  Link                            kg            kg            kg            kg            kg
  ------------------------------------------------------------------------------------------
  WSL2038                     13.910         0.000         0.000         0.000         0.000
  WSL2039                     23.163         0.000         0.000         0.000         0.000
  WSL2041                     19.329         0.000         0.000         0.000         0.000
  WSL2294                     86.517         0.000         0.000         0.000         0.000
  WSL2295                     85.540         0.000         0.000         0.000         0.000
  WSL2296                     90.842         0.000         0.000         0.000         0.000
  WSL2297                     90.757         0.000         0.000         0.000         0.000
  WSL2298                     86.977         0.000         0.000         0.000         0.000
  WSL2301                     88.892         0.000         0.000         0.000         0.000
  WSL2302                     88.476         0.000         0.000         0.000         0.000
  WSL2441                     87.853         0.000         0.000         0.000         0.000
  WSL2442                     49.647         0.000         0.000         0.000         0.000
  WSL2443                     50.268         0.000         0.000         0.000         0.000
  WSL2444                     48.872         0.000         0.000         0.000         0.000
  WSL2446                     49.951         0.000         0.000         0.000         0.000
  WSL2447                     51.625         0.000         0.000         0.000         0.000
  WSL2448                     50.846         0.000         0.000         0.000         0.000
  WSL2449                     49.381         0.000         0.000         0.000         0.000
  WSL2450                     47.771         0.000         0.000         0.000         0.000
  WSL2451                     45.817         0.000         0.000         0.000         0.000
  WSL2452                     44.319         0.000         0.000         0.000         0.000
  WSL2454                     41.789         0.000         0.000         0.000         0.000
  WSL2478                     40.400         0.000         0.000         0.000         0.000
  WSL2479                     37.382         0.000         0.000         0.000         0.000
  WSL2480                     80.909         0.000         0.000         0.000         0.000
  WSL2482                     76.905         0.000         0.000         0.000         0.000
  WSL2484                     69.994         0.000         0.000         0.000         0.000
  WSL2493                     49.775         0.000         0.000         0.000         0.000
  8                           63.888         0.000         0.000         0.000         0.000
  19                           0.000         0.000         0.000         0.000         0.000
  17                          81.831         0.000         0.000         0.000         0.000
  CC-Pump-1                   20.525         0.000         0.000         0.000         0.000
  CC-Pump-2                   29.116         0.000         0.000         0.000         0.000
  

  Analysis begun on:  Thu Aug 15 17:32:12 2019
  Analysis ended on:  Thu Aug 15 17:32:12 2019
  Total elapsed time: < 1 sec