
  EPA STORM WATER MANAGEMENT MODEL - VERSION 5.1 (Build 5.2.0.dev5)
  --------------------------------------------------------------

  
  *********************************************************
  NOTE: The summary statistics displayed in this report are
  based on results found at every computational time step,  
  not just on results from each reporting time step.
  *********************************************************
  
  ****************
  Analysis Options
  ****************
  Flow Units ............... MLD
  Process Models:
    Rainfall/Runoff ........ YES
    RDII ................... NO
    Snowmelt ............... NO
    Groundwater ............ NO
    Flow Routing ........... YES
    Ponding Allowed ........ NO
    Water Quality .......... YES
  Infiltration Method ...... GREEN_AMPT
  Flow Routing Method ...... DYNWAVE
  Surcharge Method ......... EXTRAN
  Starting Date ............ 08/28/2015 08:00:00
  Ending Date .............. 08/28/2015 11:50:00
  Antecedent Dry Days ...... 4.0
  Report Time Step ......... 00:01:00
  Wet Time Step ............ 00:01:00
  Dry Time Step ............ 00:01:00
  Routing Time Step ........ 5.00 sec
  Variable Time Step ....... YES
  Maximum Trials ........... 8
  Number of Threads ........ 1
  Head Tolerance ........... 0.001500 m
  
  
  **************************        Volume         Depth
  Runoff Quantity Continuity     hectare-m            mm
  **************************     ---------       -------
  Total Precipitation ......         1.967        31.793
  Evaporation Loss .........         0.000         0.000
  Infiltration Loss ........         0.611         9.881
  Surface Runoff ...........         0.541         8.747
  Final Storage ............         0.814        13.166
  Continuity Error (%) .....        -0.005
  
  
  **************************           COD         NH3-N            TN            TP            SS
  Runoff Quality Continuity             kg            kg            kg            kg            kg
  **************************    ----------    ----------    ----------    ----------    ----------
  Initial Buildup ..........      2504.640         0.000         0.000         0.000         0.000
  Surface Buildup ..........        19.335         0.000         0.000         0.000         0.000
  Wet Deposition ...........         0.000         0.000         0.000         0.000         0.000
  Sweeping Removal .........         0.000         0.000         0.000         0.000         0.000
  Infiltration Loss ........       159.638         0.000         0.000         0.000         0.000
  BMP Removal ..............         0.000         0.000         0.000         0.000         0.000
  Surface Runoff ...........      1103.234         0.000         0.000         0.000         0.000
  Remaining Buildup ........      1259.960         0.000         0.000         0.000         0.000
  Continuity Error (%) .....         0.045         0.000         0.000         0.000         0.000
  
  
  **************************        Volume        Volume
  Flow Routing Continuity        hectare-m      10^6 ltr
  **************************     ---------     ---------
  Dry Weather Inflow .......         0.000         0.000
  Wet Weather Inflow .......         0.540         5.395
  Groundwater Inflow .......         0.000         0.000
  RDII Inflow ..............         0.000         0.000
  External Inflow ..........         0.082         0.822
  External Outflow .........         0.575         5.755
  Flooding Loss ............         0.028         0.278
  Evaporation Loss .........         0.000         0.000
  Exfiltration Loss ........         0.000         0.000
  Initial Stored Volume ....         0.000         0.000
  Final Stored Volume ......         0.047         0.469
  Continuity Error (%) .....        -4.586
  
  
  **************************           COD         NH3-N            TN            TP            SS
  Quality Routing Continuity            kg            kg            kg            kg            kg
  **************************    ----------    ----------    ----------    ----------    ----------
  Dry Weather Inflow .......         0.000         0.000         0.000         0.000         0.000
  Wet Weather Inflow .......      1101.282         0.000         0.000         0.000         0.000
  Groundwater Inflow .......         0.000         0.000         0.000         0.000         0.000
  RDII Inflow ..............         0.000         0.000         0.000         0.000         0.000
  External Inflow ..........       137.264         0.000         0.000         0.000         0.000
  External Outflow .........      1071.698         0.000         0.000         0.000         0.000
  Flooding Loss ............        69.676         0.000         0.000         0.000         0.000
  Exfiltration Loss ........         0.000         0.000         0.000         0.000         0.000
  Mass Reacted .............         0.000         0.000         0.000         0.000         0.000
  Initial Stored Mass ......         0.000         0.000         0.000         0.000         0.000
  Final Stored Mass ........        48.589         0.000         0.000         0.000         0.000
  Continuity Error (%) .....         3.923         0.000         0.000         0.000         0.000
  
  
  *************************
  Highest Continuity Errors
  *************************
  Node WS02006230 (6.00%)
  Node WS02006229 (3.59%)
  Node WS02006231 (3.30%)
  Node WS02006242 (2.62%)
  Node WS02006243 (2.39%)
  
  
  ***************************
  Time-Step Critical Elements
  ***************************
  Link 8 (88.16%)
  Link WSL2448 (7.20%)
  Link 17 (2.79%)
  
  
  ********************************
  Highest Flow Instability Indexes
  ********************************
  Link WSL2302 (2)
  Link WSL2301 (2)
  Link WSL2297 (2)
  Link WSL2296 (2)
  Link WSL2448 (2)
  
  
  *************************
  Routing Time Step Summary
  *************************
  Minimum Time Step           :     0.06 sec
  Average Time Step           :     0.81 sec
  Maximum Time Step           :     5.00 sec
  Percent in Steady State     :    -0.00
  Average Iterations per Step :     2.13
  Percent Not Converging      :     1.19
  
  
  ***************************
  Subcatchment Runoff Summary
  ***************************
  
  ------------------------------------------------------------------------------------------------------------------------------
                            Total      Total      Total      Total     Imperv       Perv      Total       Total     Peak  Runoff
                           Precip      Runon       Evap      Infil     Runoff     Runoff     Runoff      Runoff   Runoff   Coeff
  Subcatchment                 mm         mm         mm         mm         mm         mm         mm    10^6 ltr      MLD
  ------------------------------------------------------------------------------------------------------------------------------
  1                         31.79      47.33       0.00      11.84      18.85      24.99      43.84        0.53    11.93   0.554
  2                         31.79       0.00       0.00       9.31       7.68       4.97      12.64        0.43    11.34   0.398
  3                         31.79       0.00       0.00       9.40       7.60       4.25      11.85        0.60    15.83   0.373
  35                        31.79       0.00       0.00       9.29       7.70       5.16      12.86        0.39    10.41   0.404
  36                        31.79      26.14       0.00      11.50      13.45      10.09      23.55        1.39    32.06   0.406
  40                        31.79       6.82       0.00       9.96       9.20       6.39      15.59        0.61    15.52   0.404
  41                        31.79       0.00       0.00       9.17       7.76       6.03      13.79        0.27     7.27   0.434
  42                        31.79       0.00       0.00       9.22       7.74       5.71      13.45        0.31     8.28   0.423
  43                        31.79       0.00       0.00       8.59       7.88       9.80      17.68        0.06     1.85   0.556
  44                        31.79     390.02       0.00      18.52     103.39     243.47     346.86        1.28    27.17   0.822
  45                        31.79       0.00       0.00       8.98       7.82       7.39      15.21        0.16     4.36   0.478
  46                        31.79      22.15       0.00      10.87      12.86      12.87      25.73        0.55    13.39   0.477
  47                        31.79       0.00       0.00       9.01       7.81       7.22      15.04        0.17     4.63   0.473
  48                        31.79      10.53       0.00       9.97      10.23       9.99      20.21        0.32     8.26   0.478
  55                        31.79      15.82       0.00      10.07      11.57      14.26      25.83        0.21     5.57   0.543
  56                        31.79      24.21       0.00      11.00      13.35      13.58      26.93        0.58    13.88   0.481
  57                        31.79       0.00       0.00       9.40       7.61       4.28      11.89        0.59    15.58   0.374
  59                        31.79       0.00       0.00       8.91       7.84       7.85      15.68        0.13     3.70   0.493
  60                        31.79      34.18       0.00      10.86      16.06      25.05      41.11        0.21     5.37   0.623
  61                        31.79       0.00       0.00       9.60       7.24       2.53       9.76        1.76    44.01   0.307
  64                        31.79       0.00       0.00       9.03       7.81       7.05      14.86        0.18     4.93   0.467
  
  
  ****************************
  Subcatchment Washoff Summary
  ****************************
  
  ------------------------------------------------------------------------------------------
                                 COD         NH3-N            TN            TP            SS
  Subcatchment                    kg            kg            kg            kg            kg
  ------------------------------------------------------------------------------------------
  1                           91.910         0.000         0.000         0.000         0.000
  2                            0.000         0.000         0.000         0.000         0.000
  3                            0.000         0.000         0.000         0.000         0.000
  35                          95.196         0.000         0.000         0.000         0.000
  36                         431.669         0.000         0.000         0.000         0.000
  40                         169.774         0.000         0.000         0.000         0.000
  41                          65.434         0.000         0.000         0.000         0.000
  42                          75.009         0.000         0.000         0.000         0.000
  43                          14.746         0.000         0.000         0.000         0.000
  44                         405.405         0.000         0.000         0.000         0.000
  45                          37.930         0.000         0.000         0.000         0.000
  46                         157.368         0.000         0.000         0.000         0.000
  47                          40.490         0.000         0.000         0.000         0.000
  48                          86.938         0.000         0.000         0.000         0.000
  55                          55.519         0.000         0.000         0.000         0.000
  56                         159.708         0.000         0.000         0.000         0.000
  57                         144.044         0.000         0.000         0.000         0.000
  59                          31.703         0.000         0.000         0.000         0.000
  60                          52.862         0.000         0.000         0.000         0.000
  61                         406.356         0.000         0.000         0.000         0.000
  64                          43.330         0.000         0.000         0.000         0.000
  ------------------------------------------------------------------------------------------
  System                    2565.390         0.000         0.000         0.000         0.000
  
  
  ******************
  Node Depth Summary
  ******************
  
  ---------------------------------------------------------------------------------
                                 Average  Maximum  Maximum  Time of Max    Reported
                                   Depth    Depth      HGL   Occurrence   Max Depth
  Node                 Type       Meters   Meters   Meters  days hr:min      Meters
  ---------------------------------------------------------------------------------
  WS01000070           JUNCTION     0.00     0.00     0.00     0  00:00        0.00
  WS01000323           JUNCTION     0.00     0.00     0.00     0  00:00        0.00
  WS01000533           JUNCTION     0.00     0.00     6.86     0  00:00        0.00
  WS01005172           JUNCTION     0.00     0.00     0.00     0  00:00        0.00
  WS01005181           JUNCTION     0.00     0.00     0.00     0  00:00        0.00
  WS01009841           JUNCTION     0.00     0.00     0.00     0  00:00        0.00
  WS02000078           JUNCTION     0.00     0.00     0.00     0  00:00        0.00
  WS02000112           JUNCTION     0.00     0.00     0.00     0  00:00        0.00
  WS02000136           JUNCTION     0.00     0.00     0.00     0  00:00        0.00
  WS02004053           JUNCTION     0.00     0.00     0.00     0  00:00        0.00
  WS02004401           JUNCTION     2.23     2.42     8.42     0  03:01        2.42
  WS02005192           JUNCTION     0.59     1.02     8.89     0  02:08        1.02
  WS02005193           JUNCTION     0.63     1.03     8.85     0  03:01        1.03
  WS02005196           JUNCTION     0.61     1.02     8.87     0  03:01        1.02
  WS02006109           JUNCTION     1.67     1.97     8.59     0  03:01        1.96
  WS02006110           JUNCTION     1.68     1.96     8.56     0  03:01        1.96
  WS02006111           JUNCTION     1.68     1.92     8.50     0  03:01        1.92
  WS02006112           JUNCTION     2.12     2.35     8.47     0  03:01        2.35
  WS02006113           JUNCTION     1.68     1.95     8.54     0  03:01        1.95
  WS02006115           JUNCTION     2.14     2.35     8.45     0  03:01        2.35
  WS02006116           JUNCTION     2.19     2.40     8.44     0  03:01        2.40
  WS02006183           JUNCTION     0.00     0.00     0.00     0  00:00        0.00
  WS02006228           JUNCTION     1.64     1.95     8.60     0  03:01        1.95
  WS02006229           JUNCTION     1.61     1.91     8.60     0  03:01        1.91
  WS02006230           JUNCTION     1.55     1.85     8.60     0  03:01        1.85
  WS02006231           JUNCTION     1.40     1.70     8.60     0  03:01        1.70
  WS02006232           JUNCTION     1.28     1.57     8.60     0  03:01        1.57
  WS02006234           JUNCTION     1.16     1.44     8.60     0  03:00        1.44
  WS02006235           JUNCTION     1.15     1.43     8.60     0  03:00        1.42
  WS02006238           JUNCTION     1.14     1.41     8.59     0  03:00        1.41
  WS02006239           JUNCTION     1.11     1.38     8.59     0  03:00        1.38
  WS02006242           JUNCTION     1.03     1.28     8.58     0  03:00        1.28
  WS02006240           JUNCTION     1.03     1.30     8.59     0  03:00        1.29
  WS02006243           JUNCTION     0.91     1.15     8.57     0  03:01        1.15
  WS02006245           JUNCTION     0.85     1.08     8.57     0  03:01        1.08
  WS02006247           JUNCTION     0.83     1.06     8.57     0  03:01        1.05
  WS02006248           JUNCTION     0.75     0.96     8.55     0  03:01        0.96
  WS02006249           JUNCTION     0.76     1.02     8.62     0  03:01        1.02
  WS02006251           JUNCTION     0.75     1.10     8.77     0  03:01        1.10
  WS02006253           JUNCTION     0.65     1.04     8.84     0  03:01        1.04
  WS02618401           JUNCTION     0.00     0.00     0.00     0  00:00        0.00
  WSA1649              JUNCTION     0.00     0.00     0.00     0  00:00        0.00
  outfall-5            OUTFALL      0.19     0.40     8.07     0  02:59        0.40
  outfall-14           OUTFALL      0.13     0.22     7.88     0  03:01        0.22
  outfall-16           OUTFALL      0.00     0.00     8.39     0  00:00        0.00
  CC-storage           STORAGE      2.93     5.63     8.81     0  01:50        5.63
  
  
  *******************
  Node Inflow Summary
  *******************
  
  -------------------------------------------------------------------------------------------------
                                  Maximum  Maximum                  Lateral       Total        Flow
                                  Lateral    Total  Time of Max      Inflow      Inflow     Balance
                                   Inflow   Inflow   Occurrence      Volume      Volume       Error
  Node                 Type           MLD      MLD  days hr:min    10^6 ltr    10^6 ltr     Percent
  -------------------------------------------------------------------------------------------------
  WS01000070           JUNCTION      0.00     0.00     0  00:00           0           0       0.000 ltr
  WS01000323           JUNCTION      0.00     0.00     0  00:00           0           0       0.000 ltr
  WS01000533           JUNCTION      0.00     0.00     0  00:00           0           0       0.000 ltr
  WS01005172           JUNCTION      0.00     0.00     0  00:00           0           0       0.000 ltr
  WS01005181           JUNCTION      0.00     0.00     0  00:00           0           0       0.000 ltr
  WS01009841           JUNCTION      0.00     0.00     0  00:00           0           0       0.000 ltr
  WS02000078           JUNCTION      0.00     0.00     0  00:00           0           0       0.000 ltr
  WS02000112           JUNCTION      0.00     0.00     0  00:00           0           0       0.000 ltr
  WS02000136           JUNCTION      0.00     0.00     0  00:00           0           0       0.000 ltr
  WS02004053           JUNCTION      0.00     0.00     0  00:00           0           0       0.000 ltr
  WS02004401           JUNCTION      0.05    45.67     0  03:01      0.0086        2.17       1.350
  WS02005192           JUNCTION     15.67    15.67     0  03:01        0.61       0.611       0.546
  WS02005193           JUNCTION      0.09    15.86     0  03:01       0.014        0.65       1.331
  WS02005196           JUNCTION      0.12    15.78     0  03:01      0.0183       0.633       1.327
  WS02006109           JUNCTION      0.08    29.66     0  03:01      0.0129        1.65       1.476
  WS02006110           JUNCTION      0.08    29.73     0  03:01      0.0126        1.64       1.508
  WS02006111           JUNCTION      0.24    45.18     0  03:01      0.0352        2.22       0.922
  WS02006112           JUNCTION      0.18    45.34     0  03:01      0.0263        2.23       1.460
  WS02006113           JUNCTION     15.98    44.99     0  03:01       0.628        2.23       1.068
  WS02006115           JUNCTION      0.08    45.42     0  03:01      0.0129        2.21       1.709
  WS02006116           JUNCTION      0.24    45.62     0  03:01      0.0347        2.21       1.546
  WS02006183           JUNCTION      0.00     0.00     0  00:00           0           0       0.000 ltr
  WS02006228           JUNCTION     27.33    29.58     0  03:01        1.31        1.69       1.066
  WS02006229           JUNCTION      0.13    14.32     0  00:30      0.0193       0.435       3.720
  WS02006230           JUNCTION      0.07    14.16     0  01:09      0.0111       0.441       6.378
  WS02006231           JUNCTION      0.13    14.30     0  01:09      0.0197       0.442       3.412
  WS02006232           JUNCTION     11.41    14.72     0  01:13       0.438       0.761       2.018
  WS02006234           JUNCTION      0.14    13.38     0  01:09      0.0208       0.663       2.104
  WS02006235           JUNCTION      0.14    13.02     0  01:08      0.0215       0.665       1.167
  WS02006238           JUNCTION      0.15    13.22     0  01:08      0.0226       0.672       1.505
  WS02006239           JUNCTION      0.11    13.30     0  01:08      0.0167       0.681       2.284
  WS02006242           JUNCTION      0.08    14.15     0  01:07      0.0124       0.702       2.688
  WS02006240           JUNCTION      0.06    13.53     0  01:07     0.00952        0.69       2.432
  WS02006243           JUNCTION      0.17    14.48     0  01:06      0.0259       0.716       2.446
  WS02006245           JUNCTION      0.07    14.34     0  01:06      0.0109        0.71       1.885
  WS02006247           JUNCTION     12.07    22.34     0  03:01       0.552        1.21       0.944
  WS02006248           JUNCTION      0.12    78.75     0  03:01      0.0185        3.89       0.292
  WS02006249           JUNCTION      0.19    56.31     0  03:01      0.0275        2.97       0.499
  WS02006251           JUNCTION      5.63    56.15     0  03:01       0.223        2.95       0.524
  WS02006253           JUNCTION      0.11    50.53     0  03:01      0.0166        2.73       0.323
  WS02618401           JUNCTION      0.00     0.00     0  00:00           0           0       0.000 ltr
  WSA1649              JUNCTION      0.00     0.00     0  00:00           0           0       0.000 ltr
  outfall-5            OUTFALL       0.00    78.70     0  03:01           0        3.63       0.000
  outfall-14           OUTFALL       0.00    45.66     0  03:01           0        2.13       0.000
  outfall-16           OUTFALL       0.00     0.00     0  00:00           0           0       0.000 ltr
  CC-storage           STORAGE      45.47    45.47     0  03:01        2.03        2.03     -13.702
  
  
  **********************
  Node Surcharge Summary
  **********************
  
  Surcharging occurs when water rises above the top of the highest conduit.
  ---------------------------------------------------------------------
                                               Max. Height   Min. Depth
                                   Hours       Above Crown    Below Rim
  Node                 Type      Surcharged         Meters       Meters
  ---------------------------------------------------------------------
  WS01000070           JUNCTION        3.83          0.000        0.000
  WS01000323           JUNCTION        3.83          0.000        0.000
  WS01000533           JUNCTION        3.83          0.000        2.147
  WS01005172           JUNCTION        3.83          0.000        0.000
  WS01005181           JUNCTION        3.83          0.000        0.000
  WS01009841           JUNCTION        3.83          0.000        0.000
  WS02000078           JUNCTION        3.83          0.000        0.000
  WS02000112           JUNCTION        3.83          0.000        0.000
  WS02000136           JUNCTION        3.83          0.000        0.000
  WS02004053           JUNCTION        3.83          0.000        0.000
  WS02005192           JUNCTION        1.25          0.423        2.396
  WS02005193           JUNCTION        1.43          0.433        2.184
  WS02005196           JUNCTION        1.38          0.422        2.284
  WS02006109           JUNCTION        2.62          1.166        0.672
  WS02006110           JUNCTION        2.64          1.164        0.681
  WS02006111           JUNCTION        2.65          1.120        0.757
  WS02006112           JUNCTION        2.81          1.348        0.335
  WS02006113           JUNCTION        2.65          1.154        0.779
  WS02006115           JUNCTION        2.85          1.350        0.949
  WS02006116           JUNCTION        2.97          1.397        0.953
  WS02006183           JUNCTION        3.83          0.000        0.000
  WS02006228           JUNCTION        2.60          1.155        1.076
  WS02006229           JUNCTION        2.59          1.115        1.339
  WS02006231           JUNCTION        2.55          1.004        0.539
  WS02006232           JUNCTION        2.51          0.873        0.616
  WS02006234           JUNCTION        2.44          0.739        0.518
  WS02006235           JUNCTION        2.42          0.726        0.568
  WS02006238           JUNCTION        2.41          0.715        0.719
  WS02006239           JUNCTION        2.40          0.680        0.649
  WS02006242           JUNCTION        2.36          0.579        0.270
  WS02006240           JUNCTION        2.37          0.595        0.808
  WS02006243           JUNCTION        2.30          0.453        0.327
  WS02006245           JUNCTION        2.27          0.379        0.476
  WS02006247           JUNCTION        2.27          0.355        0.405
  WS02006249           JUNCTION        1.98          0.318        0.070
  WS02006251           JUNCTION        1.52          0.401        1.109
  WS02006253           JUNCTION        1.07          0.338        2.116
  WS02618401           JUNCTION        3.83          0.000        0.000
  WSA1649              JUNCTION        3.83          0.000        0.000
  
  
  *********************
  Node Flooding Summary
  *********************
  
  Flooding refers to all water that overflows a node, whether it ponds or not.
  --------------------------------------------------------------------------
                                                             Total   Maximum
                                 Maximum   Time of Max       Flood    Ponded
                        Hours       Rate    Occurrence      Volume     Depth
  Node                 Flooded       MLD   days hr:min    10^6 ltr    Meters
  --------------------------------------------------------------------------
  CC-storage              0.52     24.66      0  02:40       0.278     0.000
  
  
  **********************
  Storage Volume Summary
  **********************
  
  --------------------------------------------------------------------------------------------------
                         Average     Avg  Evap Exfil       Maximum     Max    Time of Max    Maximum
                          Volume    Pcnt  Pcnt  Pcnt        Volume    Pcnt     Occurrence    Outflow
  Storage Unit           1000 m3    Full  Loss  Loss       1000 m3    Full    days hr:min        MLD
  --------------------------------------------------------------------------------------------------
  CC-storage               0.083      52     0     0         0.159     100       0  01:50      34.56
  
  
  ***********************
  Outfall Loading Summary
  ***********************
  
  ---------------------------------------------------------------------------------------------------------------------------------
                         Flow       Avg       Max       Total         Total         Total         Total         Total         Total
                         Freq      Flow      Flow      Volume           COD         NH3-N            TN            TP            SS
  Outfall Node           Pcnt       MLD       MLD    10^6 ltr            kg            kg            kg            kg            kg
  ---------------------------------------------------------------------------------------------------------------------------------
  outfall-5             91.06     39.98     78.70       3.627       647.766         0.000         0.000         0.000         0.000
  outfall-14            90.96     23.36     45.66       2.128       423.954         0.000         0.000         0.000         0.000
  outfall-16             0.00      0.00      0.00       0.000         0.000         0.000         0.000         0.000         0.000
  ---------------------------------------------------------------------------------------------------------------------------------
  System                60.67     63.34    124.18       5.755      1071.720         0.000         0.000         0.000         0.000
  
  
  ********************
  Link Flow Summary
  ********************
  
  -----------------------------------------------------------------------------
                                 Maximum  Time of Max   Maximum    Max/    Max/
                                  |Flow|   Occurrence   |Veloc|    Full    Full
  Link                 Type          MLD  days hr:min     m/sec    Flow   Depth
  -----------------------------------------------------------------------------
  WSL2038              CONDUIT     15.67     0  03:01      0.64    0.78    1.00
  WSL2039              CONDUIT     15.87     0  03:01      0.81    0.82    1.00
  WSL2041              CONDUIT     15.78     0  03:01      0.65    0.77    1.00
  WSL2294              CONDUIT     29.65     0  03:01      0.89    1.00    1.00
  WSL2295              CONDUIT     29.73     0  03:01      0.94    1.34    1.00
  WSL2296              CONDUIT     45.19     0  03:01      1.04    0.25    1.00
  WSL2297              CONDUIT     45.34     0  03:01      0.67    0.87    1.00
  WSL2298              CONDUIT     44.99     0  03:01      1.55    2.07    1.00
  WSL2301              CONDUIT     45.43     0  03:01      0.67    0.42    1.00
  WSL2302              CONDUIT     45.62     0  03:01      0.67    0.56    1.00
  WSL2441              CONDUIT     29.58     0  03:01      0.96    0.76    1.00
  WSL2442              CONDUIT     14.19     0  00:30      1.15    0.36    1.00
  WSL2443              CONDUIT     14.08     0  01:09      1.28    0.22    1.00
  WSL2444              CONDUIT     14.17     0  01:09      1.44    0.22    1.00
  WSL2446              CONDUIT     13.58     0  01:09      1.43    0.23    1.00
  WSL2447              CONDUIT     13.24     0  01:09      1.21    0.68    1.00
  WSL2448              CONDUIT     12.88     0  01:08      1.02    0.36    1.00
  WSL2449              CONDUIT     13.07     0  01:08      1.00    0.46    1.00
  WSL2450              CONDUIT     13.19     0  01:08      1.05    0.27    1.00
  WSL2451              CONDUIT     13.47     0  01:07      1.03    0.88    1.00
  WSL2452              CONDUIT     14.07     0  01:07      1.10    0.27    1.00
  WSL2454              CONDUIT     14.31     0  01:06      1.24    0.33    1.00
  WSL2478              CONDUIT     14.27     0  01:06      1.12    0.50    1.00
  WSL2479              CONDUIT     22.34     0  03:01      1.14    0.42    1.00
  WSL2480              CONDUIT     56.31     0  03:01      1.69    2.61    1.00
  WSL2482              CONDUIT     56.16     0  03:01      1.69    1.46    1.00
  WSL2484              CONDUIT     50.54     0  03:01      1.52    0.71    1.00
  WSL2493              CONDUIT     13.78     0  00:30      1.00    0.23    1.00
  8                    CONDUIT     78.70     0  03:01      7.96    1.04    0.95
  19                   CONDUIT      0.00     0  00:00      0.00    0.00    0.00
  17                   CONDUIT     45.66     0  03:01      7.39    0.59    0.55
  CC-Pump-1            PUMP        17.28     0  02:00              1.00
  CC-Pump-2            PUMP        17.28     0  02:00              1.00
  
  
  ***************************
  Flow Classification Summary
  ***************************
  
  -------------------------------------------------------------------------------------
                      Adjusted    ---------- Fraction of Time in Flow Class ---------- 
                       /Actual         Up    Down  Sub   Sup   Up    Down  Norm  Inlet 
  Conduit               Length    Dry  Dry   Dry   Crit  Crit  Crit  Crit  Ltd   Ctrl  
  -------------------------------------------------------------------------------------
  WSL2038                 1.00   0.00  0.00  0.00  1.00  0.00  0.00  0.00  0.01  0.00
  WSL2039                 1.00   0.00  0.00  0.00  1.00  0.00  0.00  0.00  0.01  0.00
  WSL2041                 1.00   0.00  0.00  0.00  1.00  0.00  0.00  0.00  0.17  0.00
  WSL2294                 1.00   0.00  0.00  0.00  1.00  0.00  0.00  0.00  0.00  0.00
  WSL2295                 1.00   0.00  0.00  0.00  1.00  0.00  0.00  0.00  0.00  0.00
  WSL2296                 1.00   0.00  0.00  0.00  1.00  0.00  0.00  0.00  0.15  0.00
  WSL2297                 1.00   0.00  0.00  0.00  1.00  0.00  0.00  0.00  0.00  0.00
  WSL2298                 1.00   0.00  0.00  0.00  0.98  0.02  0.00  0.00  0.00  0.00
  WSL2301                 1.00   0.00  0.00  0.00  1.00  0.00  0.00  0.00  0.04  0.00
  WSL2302                 1.00   0.00  0.00  0.00  1.00  0.00  0.00  0.00  0.01  0.00
  WSL2441                 1.00   0.00  0.00  0.00  1.00  0.00  0.00  0.00  0.00  0.00
  WSL2442                 1.00   0.00  0.00  0.00  1.00  0.00  0.00  0.00  0.04  0.00
  WSL2443                 1.00   0.00  0.00  0.00  1.00  0.00  0.00  0.00  0.17  0.00
  WSL2444                 1.00   0.00  0.00  0.00  0.96  0.04  0.00  0.00  0.15  0.00
  WSL2446                 1.00   0.00  0.00  0.00  0.95  0.05  0.00  0.00  0.15  0.00
  WSL2447                 1.00   0.00  0.00  0.00  1.00  0.00  0.00  0.00  0.00  0.00
  WSL2448                 1.00   0.00  0.00  0.00  1.00  0.00  0.00  0.00  0.01  0.00
  WSL2449                 1.00   0.00  0.00  0.00  1.00  0.00  0.00  0.00  0.04  0.00
  WSL2450                 1.00   0.00  0.00  0.00  1.00  0.00  0.00  0.00  0.20  0.00
  WSL2451                 1.00   0.00  0.00  0.00  1.00  0.00  0.00  0.00  0.00  0.00
  WSL2452                 1.00   0.00  0.00  0.00  1.00  0.00  0.00  0.00  0.27  0.00
  WSL2454                 1.00   0.00  0.00  0.00  1.00  0.00  0.00  0.00  0.04  0.00
  WSL2478                 1.00   0.00  0.00  0.00  1.00  0.00  0.00  0.00  0.00  0.00
  WSL2479                 1.00   0.00  0.00  0.00  1.00  0.00  0.00  0.00  0.20  0.00
  WSL2480                 1.00   0.00  0.00  0.00  1.00  0.00  0.00  0.00  0.00  0.00
  WSL2482                 1.00   0.00  0.00  0.00  1.00  0.00  0.00  0.00  0.23  0.00
  WSL2484                 1.00   0.00  0.00  0.00  1.00  0.00  0.00  0.00  0.21  0.00
  WSL2493                 1.00   0.00  0.00  0.00  1.00  0.00  0.00  0.00  0.05  0.00
  8                       1.00   0.09  0.00  0.00  0.00  0.91  0.00  0.00  0.06  0.00
  19                      1.00   1.00  0.00  0.00  0.00  0.00  0.00  0.00  0.00  0.00
  17                      1.00   0.09  0.00  0.00  0.00  0.91  0.00  0.00  0.01  0.00
  
  
  *************************
  Conduit Surcharge Summary
  *************************
  
  ----------------------------------------------------------------------------
                                                           Hours        Hours 
                         --------- Hours Full --------   Above Full   Capacity
  Conduit                Both Ends  Upstream  Dnstream   Normal Flow   Limited
  ----------------------------------------------------------------------------
  WSL2038                     1.25      1.25      1.38      0.01         0.01
  WSL2039                     1.43      1.43      1.46      0.01         0.01
  WSL2041                     1.38      1.38      1.43      0.01         0.01
  WSL2294                     2.62      2.62      2.64      0.01         0.03
  WSL2295                     2.64      2.64      2.65      0.61         0.64
  WSL2296                     2.65      2.65      3.12      0.01         0.01
  WSL2297                     2.81      2.81      2.85      0.01         0.01
  WSL2298                     2.65      2.65      2.65      1.07         1.08
  WSL2301                     2.85      2.85      2.96      0.01         0.01
  WSL2302                     2.96      2.96      3.04      0.01         0.01
  WSL2441                     2.60      2.60      2.62      0.01         0.01
  WSL2442                     2.60      2.60      2.63      0.01         0.01
  WSL2443                     2.55      2.55      2.60      0.01         0.01
  WSL2444                     2.51      2.51      2.55      0.01         0.01
  WSL2446                     2.44      2.44      2.51      0.01         0.01
  WSL2447                     2.42      2.42      2.44      0.01         0.01
  WSL2448                     2.41      2.41      2.42      0.01         0.01
  WSL2449                     2.40      2.40      2.41      0.01         0.01
  WSL2450                     2.37      2.37      2.40      0.01         0.01
  WSL2451                     2.36      2.36      2.37      0.01         0.01
  WSL2452                     2.30      2.30      2.36      0.01         0.01
  WSL2454                     2.27      2.27      2.30      0.01         0.01
  WSL2478                     2.27      2.27      2.27      0.01         0.01
  WSL2479                     2.00      2.00      2.27      0.01         0.01
  WSL2480                     1.98      1.98      2.00      1.47         1.50
  WSL2482                     1.52      1.52      1.98      0.86         0.87
  WSL2484                     1.07      1.07      1.52      0.01         0.01
  WSL2493                     2.59      2.59      2.60      0.01         0.01
  8                           0.01      0.01      0.05      0.05         0.01
  
  
  ***************
  Pumping Summary
  ***************
  
  ---------------------------------------------------------------------------------------------------------
                                                  Min       Avg       Max     Total     Power    % Time Off
                        Percent   Number of      Flow      Flow      Flow    Volume     Usage    Pump Curve
  Pump                 Utilized   Start-Ups       MLD       MLD       MLD  10^6 ltr     Kw-hr    Low   High
  ---------------------------------------------------------------------------------------------------------
  CC-Pump-1               60.89           4      0.00     13.28     17.28     1.038      7.67    0.0    0.0
  CC-Pump-2               60.89           4      0.00     13.28     17.28     1.038      7.67    0.0    0.0
  
  
  ***************************
  Link Pollutant Load Summary
  ***************************
  
  ------------------------------------------------------------------------------------------
                                 COD         NH3-N            TN            TP            SS
  Link                            kg            kg            kg            kg            kg
  ------------------------------------------------------------------------------------------
  WSL2038                    147.277         0.000         0.000         0.000         0.000
  WSL2039                    154.888         0.000         0.000         0.000         0.000
  WSL2041                    151.326         0.000         0.000         0.000         0.000
  WSL2294                    437.817         0.000         0.000         0.000         0.000
  WSL2295                    433.849         0.000         0.000         0.000         0.000
  WSL2296                    436.964         0.000         0.000         0.000         0.000
  WSL2297                    435.201         0.000         0.000         0.000         0.000
  WSL2298                    433.239         0.000         0.000         0.000         0.000
  WSL2301                    432.106         0.000         0.000         0.000         0.000
  WSL2302                    430.505         0.000         0.000         0.000         0.000
  WSL2441                    441.446         0.000         0.000         0.000         0.000
  WSL2442                     49.751         0.000         0.000         0.000         0.000
  WSL2443                     44.935         0.000         0.000         0.000         0.000
  WSL2444                     40.417         0.000         0.000         0.000         0.000
  WSL2446                     41.476         0.000         0.000         0.000         0.000
  WSL2447                     44.888         0.000         0.000         0.000         0.000
  WSL2448                     45.937         0.000         0.000         0.000         0.000
  WSL2449                     47.566         0.000         0.000         0.000         0.000
  WSL2450                     48.789         0.000         0.000         0.000         0.000
  WSL2451                     49.376         0.000         0.000         0.000         0.000
  WSL2452                     50.362         0.000         0.000         0.000         0.000
  WSL2454                     51.007         0.000         0.000         0.000         0.000
  WSL2478                     51.901         0.000         0.000         0.000         0.000
  WSL2479                    136.587         0.000         0.000         0.000         0.000
  WSL2480                    556.006         0.000         0.000         0.000         0.000
  WSL2482                    551.907         0.000         0.000         0.000         0.000
  WSL2484                    494.419         0.000         0.000         0.000         0.000
  WSL2493                     58.316         0.000         0.000         0.000         0.000
  8                          647.766         0.000         0.000         0.000         0.000
  19                           0.000         0.000         0.000         0.000         0.000
  17                         423.954         0.000         0.000         0.000         0.000
  CC-Pump-1                  169.444         0.000         0.000         0.000         0.000
  CC-Pump-2                  169.444         0.000         0.000         0.000         0.000
  

  Analysis begun on:  Thu Aug 15 17:32:31 2019
  Analysis ended on:  Thu Aug 15 17:32:31 2019
  Total elapsed time: < 1 sec