
  EPA STORM WATER MANAGEMENT MODEL - VERSION 5.1 (Build 5.2.0.dev5)
  --------------------------------------------------------------

  
  *********************************************************
  NOTE: The summary statistics displayed in this report are
  based on results found at every computational time step,  
  not just on results from each reporting time step.
  *********************************************************
  
  ****************
  Analysis Options
  ****************
  Flow Units ............... MLD
  Process Models:
    Rainfall/Runoff ........ YES
    RDII ................... NO
    Snowmelt ............... NO
    Groundwater ............ NO
    Flow Routing ........... YES
    Ponding Allowed ........ NO
    Water Quality .......... YES
  Infiltration Method ...... GREEN_AMPT
  Flow Routing Method ...... DYNWAVE
  Surcharge Method ......... EXTRAN
  Starting Date ............ 08/28/2015 08:00:00
  Ending Date .............. 08/28/2015 11:50:00
  Antecedent Dry Days ...... 4.0
  Report Time Step ......... 00:01:00
  Wet Time Step ............ 00:01:00
  Dry Time Step ............ 00:01:00
  Routing Time Step ........ 5.00 sec
  Variable Time Step ....... YES
  Maximum Trials ........... 8
  Number of Threads ........ 1
  Head Tolerance ........... 0.001500 m
  
  
  **************************        Volume         Depth
  Runoff Quantity Continuity     hectare-m            mm
  **************************     ---------       -------
  Total Precipitation ......         1.623        26.233
  Evaporation Loss .........         0.000         0.000
  Infiltration Loss ........         0.586         9.465
  Surface Runoff ...........         0.439         7.095
  Final Storage ............         0.598         9.674
  Continuity Error (%) .....        -0.004
  
  
  **************************           COD         NH3-N            TN            TP            SS
  Runoff Quality Continuity             kg            kg            kg            kg            kg
  **************************    ----------    ----------    ----------    ----------    ----------
  Initial Buildup ..........      2504.640         0.000         0.000         0.000         0.000
  Surface Buildup ..........        19.516         0.000         0.000         0.000         0.000
  Wet Deposition ...........         0.000         0.000         0.000         0.000         0.000
  Sweeping Removal .........         0.000         0.000         0.000         0.000         0.000
  Infiltration Loss ........       160.490         0.000         0.000         0.000         0.000
  BMP Removal ..............         0.000         0.000         0.000         0.000         0.000
  Surface Runoff ...........       884.549         0.000         0.000         0.000         0.000
  Remaining Buildup ........      1477.617         0.000         0.000         0.000         0.000
  Continuity Error (%) .....         0.059         0.000         0.000         0.000         0.000
  
  
  **************************        Volume        Volume
  Flow Routing Continuity        hectare-m      10^6 ltr
  **************************     ---------     ---------
  Dry Weather Inflow .......         0.000         0.000
  Wet Weather Inflow .......         0.438         4.379
  Groundwater Inflow .......         0.000         0.000
  RDII Inflow ..............         0.000         0.000
  External Inflow ..........         0.082         0.822
  External Outflow .........         0.466         4.656
  Flooding Loss ............         0.005         0.051
  Evaporation Loss .........         0.000         0.000
  Exfiltration Loss ........         0.000         0.000
  Initial Stored Volume ....         0.000         0.000
  Final Stored Volume ......         0.062         0.622
  Continuity Error (%) .....        -2.464
  
  
  **************************           COD         NH3-N            TN            TP            SS
  Quality Routing Continuity            kg            kg            kg            kg            kg
  **************************    ----------    ----------    ----------    ----------    ----------
  Dry Weather Inflow .......         0.000         0.000         0.000         0.000         0.000
  Wet Weather Inflow .......       883.248         0.000         0.000         0.000         0.000
  Groundwater Inflow .......         0.000         0.000         0.000         0.000         0.000
  RDII Inflow ..............         0.000         0.000         0.000         0.000         0.000
  External Inflow ..........       137.264         0.000         0.000         0.000         0.000
  External Outflow .........       901.314         0.000         0.000         0.000         0.000
  Flooding Loss ............         4.968         0.000         0.000         0.000         0.000
  Exfiltration Loss ........         0.000         0.000         0.000         0.000         0.000
  Mass Reacted .............         0.000         0.000         0.000         0.000         0.000
  Initial Stored Mass ......         0.000         0.000         0.000         0.000         0.000
  Final Stored Mass ........        84.776         0.000         0.000         0.000         0.000
  Continuity Error (%) .....         2.886         0.000         0.000         0.000         0.000
  
  
  *************************
  Highest Continuity Errors
  *************************
  Node WS02006230 (5.05%)
  Node WS02006242 (3.30%)
  Node WS02006229 (3.11%)
  Node WS02006240 (3.01%)
  Node WS02006243 (3.01%)
  
  
  ***************************
  Time-Step Critical Elements
  ***************************
  Link 8 (85.83%)
  Link WSL2448 (7.33%)
  Link 17 (5.09%)
  
  
  ********************************
  Highest Flow Instability Indexes
  ********************************
  Link WSL2302 (2)
  Link WSL2301 (2)
  Link WSL2297 (1)
  Link WSL2296 (1)
  Link WSL2493 (1)
  
  
  *************************
  Routing Time Step Summary
  *************************
  Minimum Time Step           :     0.04 sec
  Average Time Step           :     0.83 sec
  Maximum Time Step           :     5.00 sec
  Percent in Steady State     :     0.00
  Average Iterations per Step :     2.12
  Percent Not Converging      :     1.23
  
  
  ***************************
  Subcatchment Runoff Summary
  ***************************
  
  ------------------------------------------------------------------------------------------------------------------------------
                            Total      Total      Total      Total     Imperv       Perv      Total       Total     Peak  Runoff
                           Precip      Runon       Evap      Infil     Runoff     Runoff     Runoff      Runoff   Runoff   Coeff
  Subcatchment                 mm         mm         mm         mm         mm         mm         mm    10^6 ltr      MLD
  ------------------------------------------------------------------------------------------------------------------------------
  1                         26.23      38.18       0.00      11.36      15.40      19.98      35.38        0.43     6.63   0.549
  2                         26.23       0.00       0.00       8.92       6.34       3.85      10.19        0.34     6.05   0.389
  3                         26.23       0.00       0.00       9.00       6.29       3.29       9.58        0.49     8.61   0.365
  35                        26.23       0.00       0.00       8.89       6.36       4.00      10.36        0.31     5.53   0.395
  36                        26.23      21.09       0.00      11.03      11.05       8.02      19.07        1.13    16.65   0.403
  40                        26.23       5.48       0.00       9.54       7.58       5.00      12.58        0.49     8.12   0.397
  41                        26.23       0.00       0.00       8.78       6.40       4.68      11.08        0.22     3.79   0.422
  42                        26.23       0.00       0.00       8.83       6.39       4.43      10.82        0.25     4.34   0.412
  43                        26.23       0.00       0.00       8.23       6.50       7.60      14.11        0.05     0.93   0.538
  44                        26.23     316.20       0.00      17.68      84.01     197.86     281.87        1.04    17.00   0.823
  45                        26.23       0.00       0.00       8.60       6.45       5.73      12.18        0.13     2.22   0.464
  46                        26.23      17.79       0.00      10.42      10.54      10.18      20.71        0.44     6.63   0.470
  47                        26.23       0.00       0.00       8.63       6.45       5.60      12.05        0.13     2.37   0.459
  48                        26.23       8.45       0.00       9.55       8.40       7.83      16.23        0.26     4.12   0.468
  55                        26.23      12.67       0.00       9.64       9.48      11.22      20.70        0.17     2.72   0.532
  56                        26.23      19.47       0.00      10.54      10.93      10.76      21.69        0.46     6.91   0.475
  57                        26.23       0.00       0.00       9.00       6.29       3.32       9.61        0.48     8.47   0.366
  59                        26.23       0.00       0.00       8.54       6.47       6.09      12.55        0.11     1.88   0.479
  60                        26.23      27.42       0.00      10.39      13.10      19.87      32.96        0.17     2.70   0.614
  61                        26.23       0.00       0.00       9.19       6.01       1.96       7.96        1.43    25.10   0.304
  64                        26.23       0.00       0.00       8.65       6.44       5.47      11.91        0.14     2.53   0.454
  
  
  ****************************
  Subcatchment Washoff Summary
  ****************************
  
  ------------------------------------------------------------------------------------------
                                 COD         NH3-N            TN            TP            SS
  Subcatchment                    kg            kg            kg            kg            kg
  ------------------------------------------------------------------------------------------
  1                           81.409         0.000         0.000         0.000         0.000
  2                            0.000         0.000         0.000         0.000         0.000
  3                            0.000         0.000         0.000         0.000         0.000
  35                          70.929         0.000         0.000         0.000         0.000
  36                         378.730         0.000         0.000         0.000         0.000
  40                         133.723         0.000         0.000         0.000         0.000
  41                          49.525         0.000         0.000         0.000         0.000
  42                          56.423         0.000         0.000         0.000         0.000
  43                          12.175         0.000         0.000         0.000         0.000
  44                         355.434         0.000         0.000         0.000         0.000
  45                          29.545         0.000         0.000         0.000         0.000
  46                         140.050         0.000         0.000         0.000         0.000
  47                          31.421         0.000         0.000         0.000         0.000
  48                          73.506         0.000         0.000         0.000         0.000
  55                          49.230         0.000         0.000         0.000         0.000
  56                         142.700         0.000         0.000         0.000         0.000
  57                         105.895         0.000         0.000         0.000         0.000
  59                          24.957         0.000         0.000         0.000         0.000
  60                          46.165         0.000         0.000         0.000         0.000
  61                         292.581         0.000         0.000         0.000         0.000
  64                          33.498         0.000         0.000         0.000         0.000
  ------------------------------------------------------------------------------------------
  System                    2107.895         0.000         0.000         0.000         0.000
  
  
  ******************
  Node Depth Summary
  ******************
  
  ---------------------------------------------------------------------------------
                                 Average  Maximum  Maximum  Time of Max    Reported
                                   Depth    Depth      HGL   Occurrence   Max Depth
  Node                 Type       Meters   Meters   Meters  days hr:min      Meters
  ---------------------------------------------------------------------------------
  WS01000070           JUNCTION     0.00     0.00     0.00     0  00:00        0.00
  WS01000323           JUNCTION     0.00     0.00     0.00     0  00:00        0.00
  WS01000533           JUNCTION     0.00     0.00     6.86     0  00:00        0.00
  WS01005172           JUNCTION     0.00     0.00     0.00     0  00:00        0.00
  WS01005181           JUNCTION     0.00     0.00     0.00     0  00:00        0.00
  WS01009841           JUNCTION     0.00     0.00     0.00     0  00:00        0.00
  WS02000078           JUNCTION     0.00     0.00     0.00     0  00:00        0.00
  WS02000112           JUNCTION     0.00     0.00     0.00     0  00:00        0.00
  WS02000136           JUNCTION     0.00     0.00     0.00     0  00:00        0.00
  WS02004053           JUNCTION     0.00     0.00     0.00     0  00:00        0.00
  WS02004401           JUNCTION     2.22     2.37     8.37     0  02:30        2.37
  WS02005192           JUNCTION     0.53     1.45     9.32     0  01:35        0.78
  WS02005193           JUNCTION     0.57     0.99     8.81     0  01:35        0.82
  WS02005196           JUNCTION     0.55     1.28     9.13     0  01:35        0.80
  WS02006109           JUNCTION     1.64     1.81     8.43     0  02:30        1.81
  WS02006110           JUNCTION     1.65     1.82     8.42     0  02:30        1.82
  WS02006111           JUNCTION     1.66     1.82     8.40     0  02:30        1.82
  WS02006112           JUNCTION     2.10     2.27     8.39     0  02:30        2.27
  WS02006113           JUNCTION     1.66     1.83     8.42     0  02:30        1.83
  WS02006115           JUNCTION     2.12     2.28     8.38     0  02:30        2.28
  WS02006116           JUNCTION     2.18     2.34     8.38     0  02:30        2.34
  WS02006183           JUNCTION     0.00     0.00     0.00     0  00:00        0.00
  WS02006228           JUNCTION     1.61     1.79     8.44     0  02:30        1.79
  WS02006229           JUNCTION     1.57     1.75     8.44     0  02:30        1.75
  WS02006230           JUNCTION     1.52     1.69     8.44     0  02:30        1.69
  WS02006231           JUNCTION     1.37     1.54     8.44     0  02:30        1.54
  WS02006232           JUNCTION     1.25     1.41     8.44     0  02:30        1.41
  WS02006234           JUNCTION     1.13     1.28     8.44     0  02:30        1.28
  WS02006235           JUNCTION     1.12     1.27     8.44     0  02:30        1.27
  WS02006238           JUNCTION     1.11     1.26     8.44     0  02:30        1.26
  WS02006239           JUNCTION     1.08     1.23     8.44     0  02:30        1.23
  WS02006242           JUNCTION     1.00     1.14     8.44     0  02:50        1.14
  WS02006240           JUNCTION     1.00     1.15     8.44     0  02:30        1.15
  WS02006243           JUNCTION     0.88     1.02     8.44     0  02:50        1.02
  WS02006245           JUNCTION     0.82     0.95     8.44     0  02:50        0.95
  WS02006247           JUNCTION     0.80     0.93     8.44     0  02:50        0.93
  WS02006248           JUNCTION     0.72     0.85     8.44     0  02:50        0.85
  WS02006249           JUNCTION     0.73     0.94     8.54     0  01:35        0.88
  WS02006251           JUNCTION     0.70     1.20     8.87     0  01:35        0.92
  WS02006253           JUNCTION     0.59     1.24     9.04     0  01:35        0.84
  WS02618401           JUNCTION     0.00     0.00     0.00     0  00:00        0.00
  WSA1649              JUNCTION     0.00     0.00     0.00     0  00:00        0.00
  outfall-5            OUTFALL      0.16     0.25     7.92     0  02:50        0.25
  outfall-14           OUTFALL      0.12     0.17     7.83     0  02:30        0.17
  outfall-16           OUTFALL      0.00     0.00     8.39     0  00:00        0.00
  CC-storage           STORAGE      2.26     5.63     8.81     0  03:40        5.63
  
  
  *******************
  Node Inflow Summary
  *******************
  
  -------------------------------------------------------------------------------------------------
                                  Maximum  Maximum                  Lateral       Total        Flow
                                  Lateral    Total  Time of Max      Inflow      Inflow     Balance
                                   Inflow   Inflow   Occurrence      Volume      Volume       Error
  Node                 Type           MLD      MLD  days hr:min    10^6 ltr    10^6 ltr     Percent
  -------------------------------------------------------------------------------------------------
  WS01000070           JUNCTION      0.00     0.00     0  00:00           0           0       0.000 ltr
  WS01000323           JUNCTION      0.00     0.00     0  00:00           0           0       0.000 ltr
  WS01000533           JUNCTION      0.00     0.00     0  00:00           0           0       0.000 ltr
  WS01005172           JUNCTION      0.00     0.00     0  00:00           0           0       0.000 ltr
  WS01005181           JUNCTION      0.00     0.00     0  00:00           0           0       0.000 ltr
  WS01009841           JUNCTION      0.00     0.00     0  00:00           0           0       0.000 ltr
  WS02000078           JUNCTION      0.00     0.00     0  00:00           0           0       0.000 ltr
  WS02000112           JUNCTION      0.00     0.00     0  00:00           0           0       0.000 ltr
  WS02000136           JUNCTION      0.00     0.00     0  00:00           0           0       0.000 ltr
  WS02004053           JUNCTION      0.00     0.00     0  00:00           0           0       0.000 ltr
  WS02004401           JUNCTION      0.05    29.12     0  02:30      0.0086        1.82       1.586
  WS02005192           JUNCTION      8.57     8.57     0  02:22       0.496       0.498       0.519
  WS02005193           JUNCTION      0.09     8.76     0  02:22       0.014       0.549       1.322
  WS02005196           JUNCTION      0.12     8.68     0  02:22      0.0183       0.524       1.287
  WS02006109           JUNCTION      0.08    20.32     0  02:51      0.0129        1.42       1.727
  WS02006110           JUNCTION      0.08    20.40     0  02:51      0.0126         1.4       1.761
  WS02006111           JUNCTION      0.24    28.63     0  02:30      0.0352        1.87       1.097
  WS02006112           JUNCTION      0.18    28.78     0  02:30      0.0263        1.88       1.726
  WS02006113           JUNCTION      8.76    28.42     0  02:30       0.513        1.88       1.261
  WS02006115           JUNCTION      0.08    28.86     0  02:30      0.0129        1.86       2.019
  WS02006116           JUNCTION      0.24    29.07     0  02:30      0.0347        1.86       1.821
  WS02006183           JUNCTION      0.00     0.00     0  00:00           0           0       0.000 ltr
  WS02006228           JUNCTION     17.15    20.24     0  02:51        1.07        1.48       1.210
  WS02006229           JUNCTION      0.13    14.32     0  00:30      0.0193         0.5       3.208
  WS02006230           JUNCTION      0.07    14.11     0  00:30      0.0111       0.507       5.323
  WS02006231           JUNCTION      0.13    14.19     0  01:09      0.0197       0.507       2.925
  WS02006232           JUNCTION      6.13    13.89     0  01:13       0.356       0.676       2.296
  WS02006234           JUNCTION      0.14    13.27     0  01:09      0.0208       0.513       2.738
  WS02006235           JUNCTION      0.14    12.93     0  01:08      0.0215       0.515       1.502
  WS02006238           JUNCTION      0.15    13.13     0  01:08      0.0226       0.524       1.915
  WS02006239           JUNCTION      0.11    13.20     0  01:08      0.0167       0.534       2.908
  WS02006242           JUNCTION      0.08    14.07     0  01:07      0.0124       0.554       3.410
  WS02006240           JUNCTION      0.06    13.44     0  01:07     0.00952       0.542       3.106
  WS02006243           JUNCTION      0.17    14.37     0  01:06      0.0259       0.567       3.099
  WS02006245           JUNCTION      0.07    14.23     0  01:06      0.0109        0.56       2.403
  WS02006247           JUNCTION      6.77    14.37     0  01:06       0.451       0.979       1.165
  WS02006248           JUNCTION      0.12    54.19     0  02:50      0.0185        3.11       0.343
  WS02006249           JUNCTION      0.19    46.34     0  02:23      0.0275        2.38       0.605
  WS02006251           JUNCTION      2.78    46.18     0  02:23       0.181        2.36       0.603
  WS02006253           JUNCTION      0.11    43.42     0  02:21      0.0166        2.21       0.326
  WS02618401           JUNCTION      0.00     0.00     0  00:00           0           0       0.000 ltr
  WSA1649              JUNCTION      0.00     0.00     0  00:00           0           0       0.000 ltr
  outfall-5            OUTFALL       0.00    54.20     0  02:50           0        2.87       0.000
  outfall-14           OUTFALL       0.00    29.12     0  02:30           0        1.78       0.000
  outfall-16           OUTFALL       0.00     0.00     0  00:00           0           0       0.000 ltr
  CC-storage           STORAGE      26.72    26.72     0  02:25        1.71        1.71      -8.613
  
  
  **********************
  Node Surcharge Summary
  **********************
  
  Surcharging occurs when water rises above the top of the highest conduit.
  ---------------------------------------------------------------------
                                               Max. Height   Min. Depth
                                   Hours       Above Crown    Below Rim
  Node                 Type      Surcharged         Meters       Meters
  ---------------------------------------------------------------------
  WS01000070           JUNCTION        3.83          0.000        0.000
  WS01000323           JUNCTION        3.83          0.000        0.000
  WS01000533           JUNCTION        3.83          0.000        2.147
  WS01005172           JUNCTION        3.83          0.000        0.000
  WS01005181           JUNCTION        3.83          0.000        0.000
  WS01009841           JUNCTION        3.83          0.000        0.000
  WS02000078           JUNCTION        3.83          0.000        0.000
  WS02000112           JUNCTION        3.83          0.000        0.000
  WS02000136           JUNCTION        3.83          0.000        0.000
  WS02004053           JUNCTION        3.83          0.000        0.000
  WS02005192           JUNCTION        0.98          0.848        1.971
  WS02005193           JUNCTION        1.11          0.391        2.226
  WS02005196           JUNCTION        1.05          0.677        2.029
  WS02006109           JUNCTION        2.61          1.013        0.825
  WS02006110           JUNCTION        2.63          1.024        0.821
  WS02006111           JUNCTION        2.65          1.018        0.859
  WS02006112           JUNCTION        2.81          1.266        0.417
  WS02006113           JUNCTION        2.64          1.025        0.908
  WS02006115           JUNCTION        2.85          1.280        1.019
  WS02006116           JUNCTION        2.97          1.336        1.014
  WS02006183           JUNCTION        3.83          0.000        0.000
  WS02006228           JUNCTION        2.59          0.991        1.240
  WS02006229           JUNCTION        2.59          0.951        1.503
  WS02006231           JUNCTION        2.54          0.842        0.701
  WS02006232           JUNCTION        2.50          0.713        0.776
  WS02006234           JUNCTION        2.39          0.583        0.674
  WS02006235           JUNCTION        2.39          0.572        0.722
  WS02006238           JUNCTION        2.38          0.562        0.872
  WS02006239           JUNCTION        2.36          0.532        0.797
  WS02006242           JUNCTION        2.32          0.442        0.407
  WS02006240           JUNCTION        2.33          0.452        0.951
  WS02006243           JUNCTION        2.28          0.322        0.458
  WS02006245           JUNCTION        2.27          0.253        0.602
  WS02006247           JUNCTION        2.27          0.233        0.527
  WS02006249           JUNCTION        2.06          0.244        0.144
  WS02006251           JUNCTION        1.23          0.501        1.009
  WS02006253           JUNCTION        0.78          0.539        1.915
  WS02618401           JUNCTION        3.83          0.000        0.000
  WSA1649              JUNCTION        3.83          0.000        0.000
  
  
  *********************
  Node Flooding Summary
  *********************
  
  Flooding refers to all water that overflows a node, whether it ponds or not.
  --------------------------------------------------------------------------
                                                             Total   Maximum
                                 Maximum   Time of Max       Flood    Ponded
                        Hours       Rate    Occurrence      Volume     Depth
  Node                 Flooded       MLD   days hr:min    10^6 ltr    Meters
  --------------------------------------------------------------------------
  CC-storage              0.16      8.38      0  03:40       0.051     0.000
  
  
  **********************
  Storage Volume Summary
  **********************
  
  --------------------------------------------------------------------------------------------------
                         Average     Avg  Evap Exfil       Maximum     Max    Time of Max    Maximum
                          Volume    Pcnt  Pcnt  Pcnt        Volume    Pcnt     Occurrence    Outflow
  Storage Unit           1000 m3    Full  Loss  Loss       1000 m3    Full    days hr:min        MLD
  --------------------------------------------------------------------------------------------------
  CC-storage               0.064      40     0     0         0.159     100       0  03:40      34.56
  
  
  ***********************
  Outfall Loading Summary
  ***********************
  
  ---------------------------------------------------------------------------------------------------------------------------------
                         Flow       Avg       Max       Total         Total         Total         Total         Total         Total
                         Freq      Flow      Flow      Volume           COD         NH3-N            TN            TP            SS
  Outfall Node           Pcnt       MLD       MLD    10^6 ltr            kg            kg            kg            kg            kg
  ---------------------------------------------------------------------------------------------------------------------------------
  outfall-5             91.00     31.73     54.20       2.873       545.266         0.000         0.000         0.000         0.000
  outfall-14            90.89     19.50     29.12       1.784       356.062         0.000         0.000         0.000         0.000
  outfall-16             0.00      0.00      0.00       0.000         0.000         0.000         0.000         0.000         0.000
  ---------------------------------------------------------------------------------------------------------------------------------
  System                60.63     51.23     82.79       4.656       901.328         0.000         0.000         0.000         0.000
  
  
  ********************
  Link Flow Summary
  ********************
  
  -----------------------------------------------------------------------------
                                 Maximum  Time of Max   Maximum    Max/    Max/
                                  |Flow|   Occurrence   |Veloc|    Full    Full
  Link                 Type          MLD  days hr:min     m/sec    Flow   Depth
  -----------------------------------------------------------------------------
  WSL2038              CONDUIT      8.57     0  02:22      0.50    0.43    1.00
  WSL2039              CONDUIT      8.76     0  02:21      0.77    0.45    1.00
  WSL2041              CONDUIT      8.68     0  02:22      0.59    0.43    1.00
  WSL2294              CONDUIT     20.32     0  02:51      0.89    0.68    1.00
  WSL2295              CONDUIT     20.40     0  02:51      0.94    0.92    1.00
  WSL2296              CONDUIT     28.63     0  02:30      0.78    0.16    1.00
  WSL2297              CONDUIT     28.78     0  02:30      0.42    0.55    1.00
  WSL2298              CONDUIT     28.42     0  02:30      1.55    1.31    1.00
  WSL2301              CONDUIT     28.86     0  02:30      0.43    0.27    1.00
  WSL2302              CONDUIT     29.07     0  02:30      0.43    0.36    1.00
  WSL2441              CONDUIT     20.24     0  02:51      0.96    0.52    1.00
  WSL2442              CONDUIT     14.19     0  00:30      1.15    0.36    1.00
  WSL2443              CONDUIT     14.03     0  00:30      1.28    0.22    1.00
  WSL2444              CONDUIT     14.05     0  01:09      1.44    0.22    1.00
  WSL2446              CONDUIT     13.48     0  01:09      1.43    0.23    1.00
  WSL2447              CONDUIT     13.13     0  01:09      1.21    0.68    1.00
  WSL2448              CONDUIT     12.78     0  01:08      1.02    0.36    1.00
  WSL2449              CONDUIT     12.98     0  01:08      0.99    0.45    1.00
  WSL2450              CONDUIT     13.09     0  01:08      1.05    0.27    1.00
  WSL2451              CONDUIT     13.38     0  01:07      1.03    0.87    1.00
  WSL2452              CONDUIT     13.98     0  01:07      1.09    0.27    1.00
  WSL2454              CONDUIT     14.20     0  01:06      1.24    0.33    1.00
  WSL2478              CONDUIT     14.16     0  01:06      1.12    0.50    1.00
  WSL2479              CONDUIT     14.15     0  01:06      1.14    0.27    1.00
  WSL2480              CONDUIT     46.34     0  02:23      1.39    2.14    1.00
  WSL2482              CONDUIT     46.18     0  02:23      1.39    1.20    1.00
  WSL2484              CONDUIT     43.45     0  02:20      1.34    0.61    1.00
  WSL2493              CONDUIT     13.78     0  00:30      1.00    0.23    1.00
  8                    CONDUIT     54.20     0  02:50      7.59    0.71    0.63
  19                   CONDUIT      0.00     0  00:00      0.00    0.00    0.00
  17                   CONDUIT     29.12     0  02:30      6.59    0.38    0.43
  CC-Pump-1            PUMP        17.28     0  02:20              1.00
  CC-Pump-2            PUMP        17.28     0  02:10              1.00
  
  
  ***************************
  Flow Classification Summary
  ***************************
  
  -------------------------------------------------------------------------------------
                      Adjusted    ---------- Fraction of Time in Flow Class ---------- 
                       /Actual         Up    Down  Sub   Sup   Up    Down  Norm  Inlet 
  Conduit               Length    Dry  Dry   Dry   Crit  Crit  Crit  Crit  Ltd   Ctrl  
  -------------------------------------------------------------------------------------
  WSL2038                 1.00   0.00  0.00  0.00  1.00  0.00  0.00  0.00  0.01  0.00
  WSL2039                 1.00   0.00  0.00  0.00  1.00  0.00  0.00  0.00  0.02  0.00
  WSL2041                 1.00   0.00  0.00  0.00  1.00  0.00  0.00  0.00  0.18  0.00
  WSL2294                 1.00   0.00  0.00  0.00  1.00  0.00  0.00  0.00  0.00  0.00
  WSL2295                 1.00   0.00  0.00  0.00  1.00  0.00  0.00  0.00  0.00  0.00
  WSL2296                 1.00   0.00  0.00  0.00  1.00  0.00  0.00  0.00  0.15  0.00
  WSL2297                 1.00   0.00  0.00  0.00  1.00  0.00  0.00  0.00  0.00  0.00
  WSL2298                 1.00   0.00  0.00  0.00  0.98  0.02  0.00  0.00  0.00  0.00
  WSL2301                 1.00   0.00  0.00  0.00  1.00  0.00  0.00  0.00  0.04  0.00
  WSL2302                 1.00   0.00  0.00  0.00  1.00  0.00  0.00  0.00  0.01  0.00
  WSL2441                 1.00   0.00  0.00  0.00  1.00  0.00  0.00  0.00  0.00  0.00
  WSL2442                 1.00   0.00  0.00  0.00  1.00  0.00  0.00  0.00  0.04  0.00
  WSL2443                 1.00   0.00  0.00  0.00  1.00  0.00  0.00  0.00  0.17  0.00
  WSL2444                 1.00   0.00  0.00  0.00  0.96  0.04  0.00  0.00  0.15  0.00
  WSL2446                 1.00   0.00  0.00  0.00  0.95  0.05  0.00  0.00  0.15  0.00
  WSL2447                 1.00   0.00  0.00  0.00  1.00  0.00  0.00  0.00  0.00  0.00
  WSL2448                 1.00   0.00  0.00  0.00  1.00  0.00  0.00  0.00  0.01  0.00
  WSL2449                 1.00   0.00  0.00  0.00  1.00  0.00  0.00  0.00  0.04  0.00
  WSL2450                 1.00   0.00  0.00  0.00  1.00  0.00  0.00  0.00  0.20  0.00
  WSL2451                 1.00   0.00  0.00  0.00  1.00  0.00  0.00  0.00  0.00  0.00
  WSL2452                 1.00   0.00  0.00  0.00  1.00  0.00  0.00  0.00  0.27  0.00
  WSL2454                 1.00   0.00  0.00  0.00  1.00  0.00  0.00  0.00  0.04  0.00
  WSL2478                 1.00   0.00  0.00  0.00  1.00  0.00  0.00  0.00  0.00  0.00
  WSL2479                 1.00   0.00  0.00  0.00  1.00  0.00  0.00  0.00  0.20  0.00
  WSL2480                 1.00   0.00  0.00  0.00  1.00  0.00  0.00  0.00  0.00  0.00
  WSL2482                 1.00   0.00  0.00  0.00  1.00  0.00  0.00  0.00  0.23  0.00
  WSL2484                 1.00   0.00  0.00  0.00  1.00  0.00  0.00  0.00  0.22  0.00
  WSL2493                 1.00   0.00  0.00  0.00  1.00  0.00  0.00  0.00  0.05  0.00
  8                       1.00   0.09  0.00  0.00  0.00  0.91  0.00  0.00  0.08  0.00
  19                      1.00   1.00  0.00  0.00  0.00  0.00  0.00  0.00  0.00  0.00
  17                      1.00   0.09  0.00  0.00  0.00  0.91  0.00  0.00  0.01  0.00
  
  
  *************************
  Conduit Surcharge Summary
  *************************
  
  ----------------------------------------------------------------------------
                                                           Hours        Hours 
                         --------- Hours Full --------   Above Full   Capacity
  Conduit                Both Ends  Upstream  Dnstream   Normal Flow   Limited
  ----------------------------------------------------------------------------
  WSL2038                     0.98      0.98      1.05      0.01         0.01
  WSL2039                     1.11      1.11      1.16      0.01         0.01
  WSL2041                     1.05      1.05      1.11      0.01         0.01
  WSL2294                     2.61      2.61      2.63      0.01         0.01
  WSL2295                     2.63      2.63      2.64      0.01         0.03
  WSL2296                     2.65      2.65      3.12      0.01         0.01
  WSL2297                     2.81      2.81      2.85      0.01         0.01
  WSL2298                     2.64      2.64      2.65      1.00         1.03
  WSL2301                     2.85      2.85      2.96      0.01         0.01
  WSL2302                     2.96      2.96      3.04      0.01         0.01
  WSL2441                     2.59      2.59      2.61      0.01         0.01
  WSL2442                     2.60      2.60      2.63      0.01         0.01
  WSL2443                     2.54      2.54      2.60      0.01         0.01
  WSL2444                     2.50      2.50      2.54      0.01         0.01
  WSL2446                     2.39      2.39      2.50      0.01         0.01
  WSL2447                     2.38      2.39      2.39      0.01         0.01
  WSL2448                     2.38      2.38      2.39      0.01         0.01
  WSL2449                     2.36      2.36      2.38      0.01         0.01
  WSL2450                     2.33      2.33      2.36      0.01         0.01
  WSL2451                     2.32      2.32      2.33      0.01         0.01
  WSL2452                     2.28      2.28      2.32      0.01         0.01
  WSL2454                     2.27      2.27      2.28      0.01         0.01
  WSL2478                     2.27      2.27      2.27      0.01         0.01
  WSL2479                     2.15      2.15      2.27      0.01         0.01
  WSL2480                     2.06      2.06      2.15      1.22         1.23
  WSL2482                     1.23      1.23      2.06      0.42         0.44
  WSL2484                     0.78      0.78      1.23      0.01         0.01
  WSL2493                     2.59      2.59      2.59      0.01         0.01
  
  
  ***************
  Pumping Summary
  ***************
  
  ---------------------------------------------------------------------------------------------------------
                                                  Min       Avg       Max     Total     Power    % Time Off
                        Percent   Number of      Flow      Flow      Flow    Volume     Usage    Pump Curve
  Pump                 Utilized   Start-Ups       MLD       MLD       MLD  10^6 ltr     Kw-hr    Low   High
  ---------------------------------------------------------------------------------------------------------
  CC-Pump-1               56.53           4      0.00      9.03     17.28     0.651      6.24    0.0    0.0
  CC-Pump-2               60.88           4      0.00     13.35     17.28     1.009      8.73    0.0    0.0
  
  
  ***************************
  Link Pollutant Load Summary
  ***************************
  
  ------------------------------------------------------------------------------------------
                                 COD         NH3-N            TN            TP            SS
  Link                            kg            kg            kg            kg            kg
  ------------------------------------------------------------------------------------------
  WSL2038                    109.257         0.000         0.000         0.000         0.000
  WSL2039                    118.197         0.000         0.000         0.000         0.000
  WSL2041                    114.018         0.000         0.000         0.000         0.000
  WSL2294                    374.241         0.000         0.000         0.000         0.000
  WSL2295                    369.662         0.000         0.000         0.000         0.000
  WSL2296                    371.872         0.000         0.000         0.000         0.000
  WSL2297                    368.938         0.000         0.000         0.000         0.000
  WSL2298                    368.661         0.000         0.000         0.000         0.000
  WSL2301                    365.087         0.000         0.000         0.000         0.000
  WSL2302                    362.622         0.000         0.000         0.000         0.000
  WSL2441                    378.728         0.000         0.000         0.000         0.000
  WSL2442                     49.510         0.000         0.000         0.000         0.000
  WSL2443                     45.093         0.000         0.000         0.000         0.000
  WSL2444                     39.875         0.000         0.000         0.000         0.000
  WSL2446                     39.031         0.000         0.000         0.000         0.000
  WSL2447                     40.345         0.000         0.000         0.000         0.000
  WSL2448                     40.762         0.000         0.000         0.000         0.000
  WSL2449                     41.722         0.000         0.000         0.000         0.000
  WSL2450                     42.181         0.000         0.000         0.000         0.000
  WSL2451                     42.376         0.000         0.000         0.000         0.000
  WSL2452                     42.993         0.000         0.000         0.000         0.000
  WSL2454                     43.341         0.000         0.000         0.000         0.000
  WSL2478                     43.568         0.000         0.000         0.000         0.000
  WSL2479                    123.347         0.000         0.000         0.000         0.000
  WSL2480                    461.742         0.000         0.000         0.000         0.000
  WSL2482                    458.617         0.000         0.000         0.000         0.000
  WSL2484                    408.604         0.000         0.000         0.000         0.000
  WSL2493                     55.570         0.000         0.000         0.000         0.000
  8                          545.266         0.000         0.000         0.000         0.000
  19                           0.000         0.000         0.000         0.000         0.000
  17                         356.062         0.000         0.000         0.000         0.000
  CC-Pump-1                  108.308         0.000         0.000         0.000         0.000
  CC-Pump-2                  184.984         0.000         0.000         0.000         0.000
  

  Analysis begun on:  Thu Aug 15 17:32:51 2019
  Analysis ended on:  Thu Aug 15 17:32:51 2019
  Total elapsed time: < 1 sec