
  EPA STORM WATER MANAGEMENT MODEL - VERSION 5.1 (Build 5.2.0.dev5)
  --------------------------------------------------------------

  
  *********************************************************
  NOTE: The summary statistics displayed in this report are
  based on results found at every computational time step,  
  not just on results from each reporting time step.
  *********************************************************
  
  ****************
  Analysis Options
  ****************
  Flow Units ............... MLD
  Process Models:
    Rainfall/Runoff ........ YES
    RDII ................... NO
    Snowmelt ............... NO
    Groundwater ............ NO
    Flow Routing ........... YES
    Ponding Allowed ........ NO
    Water Quality .......... YES
  Infiltration Method ...... GREEN_AMPT
  Flow Routing Method ...... DYNWAVE
  Surcharge Method ......... EXTRAN
  Starting Date ............ 08/28/2015 08:00:00
  Ending Date .............. 08/28/2015 11:50:00
  Antecedent Dry Days ...... 4.0
  Report Time Step ......... 00:01:00
  Wet Time Step ............ 00:01:00
  Dry Time Step ............ 00:01:00
  Routing Time Step ........ 5.00 sec
  Variable Time Step ....... YES
  Maximum Trials ........... 8
  Number of Threads ........ 1
  Head Tolerance ........... 0.001500 m
  
  
  **************************        Volume         Depth
  Runoff Quantity Continuity     hectare-m            mm
  **************************     ---------       -------
  Total Precipitation ......         1.344        21.731
  Evaporation Loss .........         0.000         0.000
  Infiltration Loss ........         0.514         8.309
  Surface Runoff ...........         0.309         4.991
  Final Storage ............         0.522         8.432
  Continuity Error (%) .....        -0.006
  
  
  **************************           COD         NH3-N            TN            TP            SS
  Runoff Quality Continuity             kg            kg            kg            kg            kg
  **************************    ----------    ----------    ----------    ----------    ----------
  Initial Buildup ..........      2504.640         0.000         0.000         0.000         0.000
  Surface Buildup ..........        19.717         0.000         0.000         0.000         0.000
  Wet Deposition ...........         0.000         0.000         0.000         0.000         0.000
  Sweeping Removal .........         0.000         0.000         0.000         0.000         0.000
  Infiltration Loss ........       107.926         0.000         0.000         0.000         0.000
  BMP Removal ..............         0.000         0.000         0.000         0.000         0.000
  Surface Runoff ...........       569.224         0.000         0.000         0.000         0.000
  Remaining Buildup ........      1844.865         0.000         0.000         0.000         0.000
  Continuity Error (%) .....         0.093         0.000         0.000         0.000         0.000
  
  
  **************************        Volume        Volume
  Flow Routing Continuity        hectare-m      10^6 ltr
  **************************     ---------     ---------
  Dry Weather Inflow .......         0.000         0.000
  Wet Weather Inflow .......         0.308         3.079
  Groundwater Inflow .......         0.000         0.000
  RDII Inflow ..............         0.000         0.000
  External Inflow ..........         0.082         0.822
  External Outflow .........         0.332         3.325
  Flooding Loss ............         0.012         0.122
  Evaporation Loss .........         0.000         0.000
  Exfiltration Loss ........         0.000         0.000
  Initial Stored Volume ....         0.000         0.000
  Final Stored Volume ......         0.062         0.622
  Continuity Error (%) .....        -4.284
  
  
  **************************           COD         NH3-N            TN            TP            SS
  Quality Routing Continuity            kg            kg            kg            kg            kg
  **************************    ----------    ----------    ----------    ----------    ----------
  Dry Weather Inflow .......         0.000         0.000         0.000         0.000         0.000
  Wet Weather Inflow .......       567.851         0.000         0.000         0.000         0.000
  Groundwater Inflow .......         0.000         0.000         0.000         0.000         0.000
  RDII Inflow ..............         0.000         0.000         0.000         0.000         0.000
  External Inflow ..........       137.263         0.000         0.000         0.000         0.000
  External Outflow .........       540.582         0.000         0.000         0.000         0.000
  Flooding Loss ............        17.308         0.000         0.000         0.000         0.000
  Exfiltration Loss ........         0.000         0.000         0.000         0.000         0.000
  Mass Reacted .............         0.000         0.000         0.000         0.000         0.000
  Initial Stored Mass ......         0.000         0.000         0.000         0.000         0.000
  Final Stored Mass ........       106.344         0.000         0.000         0.000         0.000
  Continuity Error (%) .....         5.798         0.000         0.000         0.000         0.000
  
  
  *************************
  Highest Continuity Errors
  *************************
  Node WS02006230 (5.09%)
  Node WS02006242 (3.44%)
  Node WS02006240 (3.19%)
  Node WS02006243 (3.16%)
  Node WS02006229 (3.14%)
  
  
  ***************************
  Time-Step Critical Elements
  ***************************
  Link 8 (83.29%)
  Link 17 (7.39%)
  Link WSL2448 (7.22%)
  
  
  ********************************
  Highest Flow Instability Indexes
  ********************************
  Link WSL2302 (2)
  Link WSL2301 (2)
  Link WSL2493 (2)
  Link WSL2297 (2)
  Link WSL2296 (2)
  
  
  *************************
  Routing Time Step Summary
  *************************
  Minimum Time Step           :     0.14 sec
  Average Time Step           :     0.90 sec
  Maximum Time Step           :     5.00 sec
  Percent in Steady State     :    -0.00
  Average Iterations per Step :     2.13
  Percent Not Converging      :     1.09
  
  
  ***************************
  Subcatchment Runoff Summary
  ***************************
  
  ------------------------------------------------------------------------------------------------------------------------------
                            Total      Total      Total      Total     Imperv       Perv      Total       Total     Peak  Runoff
                           Precip      Runon       Evap      Infil     Runoff     Runoff     Runoff      Runoff   Runoff   Coeff
  Subcatchment                 mm         mm         mm         mm         mm         mm         mm    10^6 ltr      MLD
  ------------------------------------------------------------------------------------------------------------------------------
  1                         21.73      25.72       0.00       9.79      11.23      11.38      22.60        0.27     6.31   0.476
  2                         21.73       0.00       0.00       7.90       5.18       2.27       7.45        0.25     6.72   0.343
  3                         21.73       0.00       0.00       7.95       5.11       1.91       7.03        0.36     9.43   0.323
  35                        21.73       0.00       0.00       7.89       5.20       2.36       7.56        0.23     6.16   0.348
  36                        21.73      14.84       0.00       9.46       8.38       4.45      12.83        0.76    17.79   0.351
  40                        21.73       3.99       0.00       8.37       6.06       2.90       8.95        0.35     9.00   0.348
  41                        21.73       0.00       0.00       7.82       5.25       2.81       8.06        0.16     4.29   0.371
  42                        21.73       0.00       0.00       7.85       5.23       2.64       7.88        0.18     4.89   0.362
  43                        21.73       0.00       0.00       7.49       5.37       4.91      10.28        0.04     1.09   0.473
  44                        21.73     213.30       0.00      15.34      57.35     124.02     181.38        0.67    14.26   0.772
  45                        21.73       0.00       0.00       7.72       5.31       3.53       8.84        0.09     2.57   0.407
  46                        21.73      12.60       0.00       9.07       8.12       5.90      14.02        0.30     7.42   0.408
  47                        21.73       0.00       0.00       7.73       5.31       3.44       8.75        0.10     2.73   0.402
  48                        21.73       6.12       0.00       8.43       6.69       4.68      11.37        0.18     4.71   0.408
  55                        21.73       9.19       0.00       8.55       7.48       6.88      14.36        0.12     3.15   0.465
  56                        21.73      13.82       0.00       9.16       8.40       6.23      14.63        0.31     7.67   0.412
  57                        21.73       0.00       0.00       7.94       5.12       1.93       7.05        0.35     9.27   0.324
  59                        21.73       0.00       0.00       7.68       5.33       3.78       9.11        0.08     2.18   0.419
  60                        21.73      19.89       0.00       9.22      10.10      12.49      22.59        0.12     2.99   0.543
  61                        21.73       0.00       0.00       8.05       4.80       1.10       5.90        1.06    26.51   0.271
  64                        21.73       0.00       0.00       7.74       5.30       3.35       8.65        0.10     2.90   0.398
  
  
  ****************************
  Subcatchment Washoff Summary
  ****************************
  
  ------------------------------------------------------------------------------------------
                                 COD         NH3-N            TN            TP            SS
  Subcatchment                    kg            kg            kg            kg            kg
  ------------------------------------------------------------------------------------------
  1                           47.503         0.000         0.000         0.000         0.000
  2                            0.000         0.000         0.000         0.000         0.000
  3                            0.000         0.000         0.000         0.000         0.000
  35                          47.102         0.000         0.000         0.000         0.000
  36                         258.984         0.000         0.000         0.000         0.000
  40                          88.236         0.000         0.000         0.000         0.000
  41                          33.397         0.000         0.000         0.000         0.000
  42                          37.825         0.000         0.000         0.000         0.000
  43                           8.960         0.000         0.000         0.000         0.000
  44                         228.870         0.000         0.000         0.000         0.000
  45                          20.477         0.000         0.000         0.000         0.000
  46                         100.230         0.000         0.000         0.000         0.000
  47                          21.698         0.000         0.000         0.000         0.000
  48                          51.531         0.000         0.000         0.000         0.000
  55                          36.916         0.000         0.000         0.000         0.000
  56                         104.839         0.000         0.000         0.000         0.000
  57                          69.356         0.000         0.000         0.000         0.000
  59                          17.477         0.000         0.000         0.000         0.000
  60                          35.743         0.000         0.000         0.000         0.000
  61                         186.578         0.000         0.000         0.000         0.000
  64                          23.048         0.000         0.000         0.000         0.000
  ------------------------------------------------------------------------------------------
  System                    1418.771         0.000         0.000         0.000         0.000
  
  
  ******************
  Node Depth Summary
  ******************
  
  ---------------------------------------------------------------------------------
                                 Average  Maximum  Maximum  Time of Max    Reported
                                   Depth    Depth      HGL   Occurrence   Max Depth
  Node                 Type       Meters   Meters   Meters  days hr:min      Meters
  ---------------------------------------------------------------------------------
  WS01000070           JUNCTION     0.00     0.00     0.00     0  00:00        0.00
  WS01000323           JUNCTION     0.00     0.00     0.00     0  00:00        0.00
  WS01000533           JUNCTION     0.00     0.00     6.86     0  00:00        0.00
  WS01005172           JUNCTION     0.00     0.00     0.00     0  00:00        0.00
  WS01005181           JUNCTION     0.00     0.00     0.00     0  00:00        0.00
  WS01009841           JUNCTION     0.00     0.00     0.00     0  00:00        0.00
  WS02000078           JUNCTION     0.00     0.00     0.00     0  00:00        0.00
  WS02000112           JUNCTION     0.00     0.00     0.00     0  00:00        0.00
  WS02000136           JUNCTION     0.00     0.00     0.00     0  00:00        0.00
  WS02004053           JUNCTION     0.00     0.00     0.00     0  00:00        0.00
  WS02004401           JUNCTION     2.19     2.38     8.38     0  03:01        2.38
  WS02005192           JUNCTION     0.48     0.80     8.67     0  03:01        0.80
  WS02005193           JUNCTION     0.53     0.84     8.66     0  03:01        0.84
  WS02005196           JUNCTION     0.50     0.82     8.67     0  03:01        0.82
  WS02006109           JUNCTION     1.60     1.83     8.45     0  03:01        1.83
  WS02006110           JUNCTION     1.62     1.84     8.44     0  03:01        1.84
  WS02006111           JUNCTION     1.63     1.83     8.41     0  03:00        1.83
  WS02006112           JUNCTION     2.08     2.27     8.39     0  03:01        2.27
  WS02006113           JUNCTION     1.63     1.84     8.43     0  03:00        1.84
  WS02006115           JUNCTION     2.09     2.29     8.39     0  03:01        2.29
  WS02006116           JUNCTION     2.15     2.34     8.38     0  03:01        2.34
  WS02006183           JUNCTION     0.00     0.00     0.00     0  00:00        0.00
  WS02006228           JUNCTION     1.58     1.81     8.46     0  03:01        1.81
  WS02006229           JUNCTION     1.54     1.77     8.46     0  03:01        1.77
  WS02006230           JUNCTION     1.48     1.71     8.46     0  03:01        1.71
  WS02006231           JUNCTION     1.34     1.56     8.46     0  03:00        1.56
  WS02006232           JUNCTION     1.21     1.43     8.46     0  03:00        1.43
  WS02006234           JUNCTION     1.09     1.30     8.46     0  03:00        1.30
  WS02006235           JUNCTION     1.09     1.29     8.46     0  03:00        1.28
  WS02006238           JUNCTION     1.08     1.28     8.46     0  03:00        1.27
  WS02006239           JUNCTION     1.05     1.25     8.46     0  03:00        1.24
  WS02006242           JUNCTION     0.97     1.15     8.45     0  03:00        1.15
  WS02006240           JUNCTION     0.97     1.17     8.46     0  03:00        1.16
  WS02006243           JUNCTION     0.85     1.03     8.45     0  03:00        1.03
  WS02006245           JUNCTION     0.79     0.96     8.45     0  03:00        0.96
  WS02006247           JUNCTION     0.77     0.94     8.45     0  03:00        0.94
  WS02006248           JUNCTION     0.69     0.86     8.45     0  03:01        0.86
  WS02006249           JUNCTION     0.70     0.90     8.50     0  03:01        0.90
  WS02006251           JUNCTION     0.66     0.93     8.60     0  03:01        0.93
  WS02006253           JUNCTION     0.55     0.85     8.65     0  03:01        0.85
  WS02618401           JUNCTION     0.00     0.00     0.00     0  00:00        0.00
  WSA1649              JUNCTION     0.00     0.00     0.00     0  00:00        0.00
  outfall-5            OUTFALL      0.13     0.26     7.92     0  03:01        0.26
  outfall-14           OUTFALL      0.11     0.17     7.83     0  03:01        0.17
  outfall-16           OUTFALL      0.00     0.00     8.39     0  00:00        0.00
  CC-storage           STORAGE      2.28     5.63     8.81     0  02:36        5.63
  
  
  *******************
  Node Inflow Summary
  *******************
  
  -------------------------------------------------------------------------------------------------
                                  Maximum  Maximum                  Lateral       Total        Flow
                                  Lateral    Total  Time of Max      Inflow      Inflow     Balance
                                   Inflow   Inflow   Occurrence      Volume      Volume       Error
  Node                 Type           MLD      MLD  days hr:min    10^6 ltr    10^6 ltr     Percent
  -------------------------------------------------------------------------------------------------
  WS01000070           JUNCTION      0.00     0.00     0  00:00           0           0       0.000 ltr
  WS01000323           JUNCTION      0.00     0.00     0  00:00           0           0       0.000 ltr
  WS01000533           JUNCTION      0.00     0.00     0  00:00           0           0       0.000 ltr
  WS01005172           JUNCTION      0.00     0.00     0  00:00           0           0       0.000 ltr
  WS01005181           JUNCTION      0.00     0.00     0  00:00           0           0       0.000 ltr
  WS01009841           JUNCTION      0.00     0.00     0  00:00           0           0       0.000 ltr
  WS02000078           JUNCTION      0.00     0.00     0  00:00           0           0       0.000 ltr
  WS02000112           JUNCTION      0.00     0.00     0  00:00           0           0       0.000 ltr
  WS02000136           JUNCTION      0.00     0.00     0  00:00           0           0       0.000 ltr
  WS02004053           JUNCTION      0.00     0.00     0  00:00           0           0       0.000 ltr
  WS02004401           JUNCTION      0.05    30.47     0  03:01      0.0086        1.34       2.168
  WS02005192           JUNCTION      9.36     9.36     0  03:01       0.369        0.37       0.704
  WS02005193           JUNCTION      0.09    10.83     0  02:01       0.014       0.416       1.760
  WS02005196           JUNCTION      0.12     9.47     0  03:01      0.0183       0.394       1.698
  WS02006109           JUNCTION      0.08    20.45     0  03:01      0.0129        1.06       2.324
  WS02006110           JUNCTION      0.08    20.52     0  03:01      0.0126        1.05       2.378
  WS02006111           JUNCTION      0.24    29.99     0  03:01      0.0352         1.4       1.472
  WS02006112           JUNCTION      0.18    30.14     0  03:01      0.0263        1.41       2.316
  WS02006113           JUNCTION      9.57    29.79     0  03:01       0.383         1.4       1.703
  WS02006115           JUNCTION      0.08    30.22     0  03:01      0.0129        1.39       2.758
  WS02006116           JUNCTION      0.24    30.41     0  03:01      0.0347        1.38       2.466
  WS02006183           JUNCTION      0.00     0.00     0  00:00           0           0       0.000 ltr
  WS02006228           JUNCTION     14.41    20.37     0  03:01       0.696        1.12       1.617
  WS02006229           JUNCTION      0.13    17.55     0  00:41      0.0193       0.496       3.242
  WS02006230           JUNCTION      0.07    17.66     0  00:40      0.0111       0.503       5.358
  WS02006231           JUNCTION      0.13    17.59     0  00:40      0.0197       0.508       2.995
  WS02006232           JUNCTION      6.80    17.38     0  00:40       0.264       0.623       2.455
  WS02006234           JUNCTION      0.14    17.06     0  00:39      0.0208       0.495       2.812
  WS02006235           JUNCTION      0.14    16.73     0  00:39      0.0215       0.495       1.593
  WS02006238           JUNCTION      0.15    16.59     0  00:39      0.0226       0.499       2.019
  WS02006239           JUNCTION      0.11    16.75     0  00:38      0.0167       0.506       3.051
  WS02006242           JUNCTION      0.08    17.59     0  00:37      0.0124       0.522       3.563
  WS02006240           JUNCTION      0.06    17.00     0  00:38     0.00952        0.51       3.292
  WS02006243           JUNCTION      0.17    18.23     0  00:37      0.0259       0.537       3.265
  WS02006245           JUNCTION      0.07    18.11     0  00:37      0.0109       0.533       2.521
  WS02006247           JUNCTION      6.44    18.24     0  00:37       0.297       0.789       1.462
  WS02006248           JUNCTION      0.12    55.94     0  03:01      0.0185        2.31       0.461
  WS02006249           JUNCTION      0.19    47.58     0  03:01      0.0275        1.82       0.801
  WS02006251           JUNCTION      3.20    47.42     0  03:01       0.128         1.8       0.793
  WS02006253           JUNCTION      0.11    44.21     0  03:01      0.0166        1.68       0.422
  WS02618401           JUNCTION      0.00     0.00     0  00:00           0           0       0.000 ltr
  WSA1649              JUNCTION      0.00     0.00     0  00:00           0           0       0.000 ltr
  outfall-5            OUTFALL       0.00    55.96     0  03:01           0        2.02       0.000
  outfall-14           OUTFALL       0.00    30.47     0  03:01           0         1.3       0.000
  outfall-16           OUTFALL       0.00     0.00     0  00:00           0           0       0.000 ltr
  CC-storage           STORAGE      27.97    27.97     0  03:01        1.34        1.34     -13.043
  
  
  **********************
  Node Surcharge Summary
  **********************
  
  Surcharging occurs when water rises above the top of the highest conduit.
  ---------------------------------------------------------------------
                                               Max. Height   Min. Depth
                                   Hours       Above Crown    Below Rim
  Node                 Type      Surcharged         Meters       Meters
  ---------------------------------------------------------------------
  WS01000070           JUNCTION        3.83          0.000        0.000
  WS01000323           JUNCTION        3.83          0.000        0.000
  WS01000533           JUNCTION        3.83          0.000        2.147
  WS01005172           JUNCTION        3.83          0.000        0.000
  WS01005181           JUNCTION        3.83          0.000        0.000
  WS01009841           JUNCTION        3.83          0.000        0.000
  WS02000078           JUNCTION        3.83          0.000        0.000
  WS02000112           JUNCTION        3.83          0.000        0.000
  WS02000136           JUNCTION        3.83          0.000        0.000
  WS02004053           JUNCTION        3.83          0.000        0.000
  WS02005192           JUNCTION        0.50          0.203        2.616
  WS02005193           JUNCTION        0.57          0.241        2.376
  WS02005196           JUNCTION        0.52          0.218        2.488
  WS02006109           JUNCTION        2.52          1.028        0.810
  WS02006110           JUNCTION        2.52          1.038        0.807
  WS02006111           JUNCTION        2.52          1.029        0.848
  WS02006112           JUNCTION        2.86          1.275        0.408
  WS02006113           JUNCTION        2.52          1.039        0.894
  WS02006115           JUNCTION        2.92          1.287        1.012
  WS02006116           JUNCTION        2.95          1.342        1.008
  WS02006183           JUNCTION        3.83          0.000        0.000
  WS02006228           JUNCTION        2.52          1.006        1.225
  WS02006229           JUNCTION        2.51          0.966        1.488
  WS02006231           JUNCTION        2.50          0.858        0.685
  WS02006232           JUNCTION        2.43          0.729        0.760
  WS02006234           JUNCTION        2.40          0.598        0.659
  WS02006235           JUNCTION        2.40          0.588        0.706
  WS02006238           JUNCTION        2.39          0.578        0.856
  WS02006239           JUNCTION        2.38          0.547        0.782
  WS02006242           JUNCTION        2.35          0.454        0.395
  WS02006240           JUNCTION        2.35          0.465        0.938
  WS02006243           JUNCTION        2.26          0.332        0.448
  WS02006245           JUNCTION        2.23          0.260        0.595
  WS02006247           JUNCTION        2.22          0.239        0.521
  WS02006249           JUNCTION        1.53          0.195        0.193
  WS02006251           JUNCTION        0.76          0.234        1.276
  WS02006253           JUNCTION        0.44          0.155        2.299
  WS02618401           JUNCTION        3.83          0.000        0.000
  WSA1649              JUNCTION        3.83          0.000        0.000
  
  
  *********************
  Node Flooding Summary
  *********************
  
  Flooding refers to all water that overflows a node, whether it ponds or not.
  --------------------------------------------------------------------------
                                                             Total   Maximum
                                 Maximum   Time of Max       Flood    Ponded
                        Hours       Rate    Occurrence      Volume     Depth
  Node                 Flooded       MLD   days hr:min    10^6 ltr    Meters
  --------------------------------------------------------------------------
  CC-storage              0.32     15.64      0  02:40       0.122     0.000
  
  
  **********************
  Storage Volume Summary
  **********************
  
  --------------------------------------------------------------------------------------------------
                         Average     Avg  Evap Exfil       Maximum     Max    Time of Max    Maximum
                          Volume    Pcnt  Pcnt  Pcnt        Volume    Pcnt     Occurrence    Outflow
  Storage Unit           1000 m3    Full  Loss  Loss       1000 m3    Full    days hr:min        MLD
  --------------------------------------------------------------------------------------------------
  CC-storage               0.064      40     0     0         0.159     100       0  02:36      34.56
  
  
  ***********************
  Outfall Loading Summary
  ***********************
  
  ---------------------------------------------------------------------------------------------------------------------------------
                         Flow       Avg       Max       Total         Total         Total         Total         Total         Total
                         Freq      Flow      Flow      Volume           COD         NH3-N            TN            TP            SS
  Outfall Node           Pcnt       MLD       MLD    10^6 ltr            kg            kg            kg            kg            kg
  ---------------------------------------------------------------------------------------------------------------------------------
  outfall-5             90.73     23.52     55.96       2.025       321.976         0.000         0.000         0.000         0.000
  outfall-14            90.79     14.79     30.47       1.300       218.622         0.000         0.000         0.000         0.000
  outfall-16             0.00      0.00      0.00       0.000         0.000         0.000         0.000         0.000         0.000
  ---------------------------------------------------------------------------------------------------------------------------------
  System                60.51     38.31     86.43       3.325       540.598         0.000         0.000         0.000         0.000
  
  
  ********************
  Link Flow Summary
  ********************
  
  -----------------------------------------------------------------------------
                                 Maximum  Time of Max   Maximum    Max/    Max/
                                  |Flow|   Occurrence   |Veloc|    Full    Full
  Link                 Type          MLD  days hr:min     m/sec    Flow   Depth
  -----------------------------------------------------------------------------
  WSL2038              CONDUIT      9.37     0  03:01      0.42    0.47    1.00
  WSL2039              CONDUIT     13.57     0  02:01      0.84    0.70    1.00
  WSL2041              CONDUIT     10.74     0  02:01      0.63    0.53    1.00
  WSL2294              CONDUIT     20.45     0  03:01      0.96    0.69    1.00
  WSL2295              CONDUIT     20.52     0  03:01      1.04    0.92    1.00
  WSL2296              CONDUIT     29.99     0  03:01      0.76    0.17    1.00
  WSL2297              CONDUIT     30.14     0  03:01      0.44    0.58    1.00
  WSL2298              CONDUIT     29.79     0  03:01      1.77    1.37    1.00
  WSL2301              CONDUIT     30.22     0  03:01      0.45    0.28    1.00
  WSL2302              CONDUIT     30.42     0  03:01      0.45    0.37    1.00
  WSL2441              CONDUIT     20.37     0  03:01      1.00    0.52    1.00
  WSL2442              CONDUIT     17.42     0  00:41      1.20    0.45    1.00
  WSL2443              CONDUIT     17.59     0  00:40      1.34    0.27    1.00
  WSL2444              CONDUIT     17.46     0  00:40      1.55    0.28    1.00
  WSL2446              CONDUIT     17.30     0  00:40      1.54    0.30    1.00
  WSL2447              CONDUIT     16.92     0  00:39      1.31    0.87    1.00
  WSL2448              CONDUIT     16.59     0  00:39      1.14    0.47    1.00
  WSL2449              CONDUIT     16.45     0  00:39      1.07    0.57    1.00
  WSL2450              CONDUIT     16.64     0  00:38      1.12    0.35    1.00
  WSL2451              CONDUIT     16.94     0  00:38      1.10    1.10    1.00
  WSL2452              CONDUIT     17.51     0  00:37      1.16    0.33    1.00
  WSL2454              CONDUIT     18.06     0  00:37      1.31    0.42    1.00
  WSL2478              CONDUIT     18.04     0  00:37      1.20    0.64    1.00
  WSL2479              CONDUIT     18.08     0  00:37      1.22    0.34    1.00
  WSL2480              CONDUIT     47.58     0  03:01      1.43    2.20    1.00
  WSL2482              CONDUIT     47.42     0  03:01      1.43    1.23    1.00
  WSL2484              CONDUIT     44.23     0  03:01      1.38    0.62    1.00
  WSL2493              CONDUIT     16.88     0  00:41      1.03    0.28    1.00
  8                    CONDUIT     55.96     0  03:01      7.64    0.74    0.64
  19                   CONDUIT      0.00     0  00:00      0.00    0.00    0.00
  17                   CONDUIT     30.47     0  03:01      6.68    0.40    0.44
  CC-Pump-1            PUMP        17.28     0  02:00              1.00
  CC-Pump-2            PUMP        17.28     0  02:00              1.00
  
  
  ***************************
  Flow Classification Summary
  ***************************
  
  -------------------------------------------------------------------------------------
                      Adjusted    ---------- Fraction of Time in Flow Class ---------- 
                       /Actual         Up    Down  Sub   Sup   Up    Down  Norm  Inlet 
  Conduit               Length    Dry  Dry   Dry   Crit  Crit  Crit  Crit  Ltd   Ctrl  
  -------------------------------------------------------------------------------------
  WSL2038                 1.00   0.00  0.00  0.00  1.00  0.00  0.00  0.00  0.01  0.00
  WSL2039                 1.00   0.00  0.00  0.00  1.00  0.00  0.00  0.00  0.01  0.00
  WSL2041                 1.00   0.00  0.00  0.00  1.00  0.00  0.00  0.00  0.22  0.00
  WSL2294                 1.00   0.00  0.00  0.00  1.00  0.00  0.00  0.00  0.00  0.00
  WSL2295                 1.00   0.00  0.00  0.00  1.00  0.00  0.00  0.00  0.00  0.00
  WSL2296                 1.00   0.00  0.00  0.00  1.00  0.00  0.00  0.00  0.18  0.00
  WSL2297                 1.00   0.00  0.00  0.00  1.00  0.00  0.00  0.00  0.00  0.00
  WSL2298                 1.00   0.00  0.00  0.00  0.98  0.02  0.00  0.00  0.00  0.00
  WSL2301                 1.00   0.00  0.00  0.00  1.00  0.00  0.00  0.00  0.04  0.00
  WSL2302                 1.00   0.00  0.00  0.00  1.00  0.00  0.00  0.00  0.01  0.00
  WSL2441                 1.00   0.00  0.00  0.00  1.00  0.00  0.00  0.00  0.00  0.00
  WSL2442                 1.00   0.00  0.00  0.00  1.00  0.00  0.00  0.00  0.09  0.00
  WSL2443                 1.00   0.00  0.00  0.00  1.00  0.00  0.00  0.00  0.19  0.00
  WSL2444                 1.00   0.00  0.00  0.00  0.95  0.05  0.00  0.00  0.14  0.00
  WSL2446                 1.00   0.00  0.00  0.00  0.95  0.05  0.00  0.00  0.13  0.00
  WSL2447                 1.00   0.00  0.00  0.00  1.00  0.00  0.00  0.00  0.00  0.00
  WSL2448                 1.00   0.00  0.00  0.00  1.00  0.00  0.00  0.00  0.01  0.00
  WSL2449                 1.00   0.00  0.00  0.00  1.00  0.00  0.00  0.00  0.04  0.00
  WSL2450                 1.00   0.00  0.00  0.00  1.00  0.00  0.00  0.00  0.25  0.00
  WSL2451                 1.00   0.00  0.00  0.00  1.00  0.00  0.00  0.00  0.00  0.00
  WSL2452                 1.00   0.00  0.00  0.00  1.00  0.00  0.00  0.00  0.29  0.00
  WSL2454                 1.00   0.00  0.00  0.00  1.00  0.00  0.00  0.00  0.05  0.00
  WSL2478                 1.00   0.00  0.00  0.00  1.00  0.00  0.00  0.00  0.00  0.00
  WSL2479                 1.00   0.00  0.00  0.00  1.00  0.00  0.00  0.00  0.24  0.00
  WSL2480                 1.00   0.00  0.00  0.00  1.00  0.00  0.00  0.00  0.00  0.00
  WSL2482                 1.00   0.00  0.00  0.00  1.00  0.00  0.00  0.00  0.26  0.00
  WSL2484                 1.00   0.00  0.00  0.00  1.00  0.00  0.00  0.00  0.23  0.00
  WSL2493                 1.00   0.00  0.00  0.00  1.00  0.00  0.00  0.00  0.05  0.00
  8                       1.00   0.09  0.00  0.00  0.00  0.91  0.00  0.00  0.10  0.00
  19                      1.00   1.00  0.00  0.00  0.00  0.00  0.00  0.00  0.00  0.00
  17                      1.00   0.09  0.00  0.00  0.00  0.91  0.00  0.00  0.02  0.00
  
  
  *************************
  Conduit Surcharge Summary
  *************************
  
  ----------------------------------------------------------------------------
                                                           Hours        Hours 
                         --------- Hours Full --------   Above Full   Capacity
  Conduit                Both Ends  Upstream  Dnstream   Normal Flow   Limited
  ----------------------------------------------------------------------------
  WSL2038                     0.50      0.50      0.52      0.01         0.01
  WSL2039                     0.57      0.57      0.61      0.01         0.01
  WSL2041                     0.52      0.52      0.57      0.01         0.01
  WSL2294                     2.52      2.52      2.52      0.01         0.01
  WSL2295                     2.52      2.52      2.52      0.01         0.02
  WSL2296                     2.52      2.52      3.06      0.01         0.01
  WSL2297                     2.86      2.86      2.92      0.01         0.01
  WSL2298                     2.52      2.52      2.52      0.40         0.44
  WSL2301                     2.92      2.92      2.95      0.01         0.01
  WSL2302                     2.95      2.95      3.00      0.01         0.01
  WSL2441                     2.52      2.52      2.52      0.01         0.01
  WSL2442                     2.51      2.51      2.52      0.01         0.01
  WSL2443                     2.50      2.50      2.51      0.01         0.01
  WSL2444                     2.43      2.43      2.50      0.01         0.01
  WSL2446                     2.40      2.40      2.43      0.01         0.01
  WSL2447                     2.40      2.40      2.40      0.01         0.01
  WSL2448                     2.39      2.39      2.40      0.01         0.01
  WSL2449                     2.38      2.38      2.39      0.01         0.01
  WSL2450                     2.35      2.35      2.38      0.01         0.01
  WSL2451                     2.35      2.35      2.35      0.03         0.01
  WSL2452                     2.26      2.26      2.35      0.01         0.01
  WSL2454                     2.23      2.23      2.26      0.01         0.01
  WSL2478                     2.22      2.22      2.23      0.01         0.01
  WSL2479                     1.88      1.88      2.22      0.01         0.01
  WSL2480                     1.53      1.53      1.88      0.80         0.79
  WSL2482                     0.76      0.76      1.53      0.37         0.38
  WSL2484                     0.44      0.44      0.76      0.01         0.01
  WSL2493                     2.51      2.51      2.52      0.01         0.01
  
  
  ***************
  Pumping Summary
  ***************
  
  ---------------------------------------------------------------------------------------------------------
                                                  Min       Avg       Max     Total     Power    % Time Off
                        Percent   Number of      Flow      Flow      Flow    Volume     Usage    Pump Curve
  Pump                 Utilized   Start-Ups       MLD       MLD       MLD  10^6 ltr     Kw-hr    Low   High
  ---------------------------------------------------------------------------------------------------------
  CC-Pump-1               47.80           4      0.00     10.67     17.28     0.628      6.47    0.0    0.0
  CC-Pump-2               47.80           4      0.00     10.67     17.28     0.628      6.47    0.0    0.0
  
  
  ***************************
  Link Pollutant Load Summary
  ***************************
  
  ------------------------------------------------------------------------------------------
                                 COD         NH3-N            TN            TP            SS
  Link                            kg            kg            kg            kg            kg
  ------------------------------------------------------------------------------------------
  WSL2038                     72.571         0.000         0.000         0.000         0.000
  WSL2039                     80.449         0.000         0.000         0.000         0.000
  WSL2041                     76.960         0.000         0.000         0.000         0.000
  WSL2294                    248.878         0.000         0.000         0.000         0.000
  WSL2295                    242.766         0.000         0.000         0.000         0.000
  WSL2296                    242.343         0.000         0.000         0.000         0.000
  WSL2297                    236.176         0.000         0.000         0.000         0.000
  WSL2298                    240.290         0.000         0.000         0.000         0.000
  WSL2301                    230.688         0.000         0.000         0.000         0.000
  WSL2302                    225.824         0.000         0.000         0.000         0.000
  WSL2441                    253.694         0.000         0.000         0.000         0.000
  WSL2442                     51.010         0.000         0.000         0.000         0.000
  WSL2443                     46.243         0.000         0.000         0.000         0.000
  WSL2444                     42.567         0.000         0.000         0.000         0.000
  WSL2446                     44.409         0.000         0.000         0.000         0.000
  WSL2447                     48.426         0.000         0.000         0.000         0.000
  WSL2448                     49.699         0.000         0.000         0.000         0.000
  WSL2449                     51.927         0.000         0.000         0.000         0.000
  WSL2450                     53.776         0.000         0.000         0.000         0.000
  WSL2451                     54.098         0.000         0.000         0.000         0.000
  WSL2452                     54.218         0.000         0.000         0.000         0.000
  WSL2454                     51.964         0.000         0.000         0.000         0.000
  WSL2478                     50.984         0.000         0.000         0.000         0.000
  WSL2479                     92.605         0.000         0.000         0.000         0.000
  WSL2480                    278.524         0.000         0.000         0.000         0.000
  WSL2482                    275.226         0.000         0.000         0.000         0.000
  WSL2484                    238.662         0.000         0.000         0.000         0.000
  WSL2493                     59.313         0.000         0.000         0.000         0.000
  8                          321.976         0.000         0.000         0.000         0.000
  19                           0.000         0.000         0.000         0.000         0.000
  17                         218.622         0.000         0.000         0.000         0.000
  CC-Pump-1                   79.489         0.000         0.000         0.000         0.000
  CC-Pump-2                   79.489         0.000         0.000         0.000         0.000
  

  Analysis begun on:  Thu Aug 15 17:33:10 2019
  Analysis ended on:  Thu Aug 15 17:33:10 2019
  Total elapsed time: < 1 sec