
  EPA STORM WATER MANAGEMENT MODEL - VERSION 5.1 (Build 5.2.0.dev5)
  --------------------------------------------------------------

  
  *********************************************************
  NOTE: The summary statistics displayed in this report are
  based on results found at every computational time step,  
  not just on results from each reporting time step.
  *********************************************************
  
  ****************
  Analysis Options
  ****************
  Flow Units ............... MLD
  Process Models:
    Rainfall/Runoff ........ YES
    RDII ................... NO
    Snowmelt ............... NO
    Groundwater ............ NO
    Flow Routing ........... YES
    Ponding Allowed ........ NO
    Water Quality .......... YES
  Infiltration Method ...... GREEN_AMPT
  Flow Routing Method ...... DYNWAVE
  Surcharge Method ......... EXTRAN
  Starting Date ............ 08/28/2015 08:00:00
  Ending Date .............. 08/28/2015 11:50:00
  Antecedent Dry Days ...... 4.0
  Report Time Step ......... 00:01:00
  Wet Time Step ............ 00:01:00
  Dry Time Step ............ 00:01:00
  Routing Time Step ........ 5.00 sec
  Variable Time Step ....... YES
  Maximum Trials ........... 8
  Number of Threads ........ 1
  Head Tolerance ........... 0.001500 m
  
  
  **************************        Volume         Depth
  Runoff Quantity Continuity     hectare-m            mm
  **************************     ---------       -------
  Total Precipitation ......         0.997        16.124
  Evaporation Loss .........         0.000         0.000
  Infiltration Loss ........         0.460         7.432
  Surface Runoff ...........         0.203         3.280
  Final Storage ............         0.335         5.413
  Continuity Error (%) .....        -0.007
  
  
  **************************           COD         NH3-N            TN            TP            SS
  Runoff Quality Continuity             kg            kg            kg            kg            kg
  **************************    ----------    ----------    ----------    ----------    ----------
  Initial Buildup ..........      2504.640         0.000         0.000         0.000         0.000
  Surface Buildup ..........        19.761         0.000         0.000         0.000         0.000
  Wet Deposition ...........         0.000         0.000         0.000         0.000         0.000
  Sweeping Removal .........         0.000         0.000         0.000         0.000         0.000
  Infiltration Loss ........        69.280         0.000         0.000         0.000         0.000
  BMP Removal ..............         0.000         0.000         0.000         0.000         0.000
  Surface Runoff ...........       277.961         0.000         0.000         0.000         0.000
  Remaining Buildup ........      2175.958         0.000         0.000         0.000         0.000
  Continuity Error (%) .....         0.048         0.000         0.000         0.000         0.000
  
  
  **************************        Volume        Volume
  Flow Routing Continuity        hectare-m      10^6 ltr
  **************************     ---------     ---------
  Dry Weather Inflow .......         0.000         0.000
  Wet Weather Inflow .......         0.202         2.024
  Groundwater Inflow .......         0.000         0.000
  RDII Inflow ..............         0.000         0.000
  External Inflow ..........         0.082         0.822
  External Outflow .........         0.246         2.460
  Flooding Loss ............         0.008         0.084
  Evaporation Loss .........         0.000         0.000
  Exfiltration Loss ........         0.000         0.000
  Initial Stored Volume ....         0.000         0.000
  Final Stored Volume ......         0.046         0.464
  Continuity Error (%) .....        -5.660
  
  
  **************************           COD         NH3-N            TN            TP            SS
  Quality Routing Continuity            kg            kg            kg            kg            kg
  **************************    ----------    ----------    ----------    ----------    ----------
  Dry Weather Inflow .......         0.000         0.000         0.000         0.000         0.000
  Wet Weather Inflow .......       277.312         0.000         0.000         0.000         0.000
  Groundwater Inflow .......         0.000         0.000         0.000         0.000         0.000
  RDII Inflow ..............         0.000         0.000         0.000         0.000         0.000
  External Inflow ..........       137.264         0.000         0.000         0.000         0.000
  External Outflow .........       307.387         0.000         0.000         0.000         0.000
  Flooding Loss ............        13.909         0.000         0.000         0.000         0.000
  Exfiltration Loss ........         0.000         0.000         0.000         0.000         0.000
  Mass Reacted .............         0.000         0.000         0.000         0.000         0.000
  Initial Stored Mass ......         0.000         0.000         0.000         0.000         0.000
  Final Stored Mass ........        64.193         0.000         0.000         0.000         0.000
  Continuity Error (%) .....         7.016         0.000         0.000         0.000         0.000
  
  
  *************************
  Highest Continuity Errors
  *************************
  Node WS02006230 (5.95%)
  Node WS02006242 (3.95%)
  Node WS02006240 (3.73%)
  Node WS02006229 (3.66%)
  Node WS02006243 (3.55%)
  
  
  ***************************
  Time-Step Critical Elements
  ***************************
  Link 8 (81.34%)
  Link 17 (9.10%)
  Link WSL2448 (8.13%)
  
  
  ********************************
  Highest Flow Instability Indexes
  ********************************
  Link WSL2302 (2)
  Link WSL2301 (2)
  Link WSL2297 (2)
  Link WSL2296 (2)
  Link WSL2448 (1)
  
  
  *************************
  Routing Time Step Summary
  *************************
  Minimum Time Step           :     0.15 sec
  Average Time Step           :     0.97 sec
  Maximum Time Step           :     5.00 sec
  Percent in Steady State     :     0.00
  Average Iterations per Step :     2.12
  Percent Not Converging      :     1.41
  
  
  ***************************
  Subcatchment Runoff Summary
  ***************************
  
  ------------------------------------------------------------------------------------------------------------------------------
                            Total      Total      Total      Total     Imperv       Perv      Total       Total     Peak  Runoff
                           Precip      Runon       Evap      Infil     Runoff     Runoff     Runoff      Runoff   Runoff   Coeff
  Subcatchment                 mm         mm         mm         mm         mm         mm         mm    10^6 ltr      MLD
  ------------------------------------------------------------------------------------------------------------------------------
  1                         16.12      16.24       0.00       8.66       7.64       6.14      13.78        0.17     3.34   0.426
  2                         16.12       0.00       0.00       7.10       3.81       1.16       4.97        0.17     3.52   0.308
  3                         16.12       0.00       0.00       7.13       3.75       0.97       4.72        0.24     5.00   0.293
  35                        16.12       0.00       0.00       7.09       3.82       1.21       5.03        0.15     3.21   0.312
  36                        16.12       9.67       0.00       8.36       5.87       2.33       8.21        0.48     9.62   0.318
  40                        16.12       2.64       0.00       7.48       4.38       1.50       5.89        0.23     4.76   0.314
  41                        16.12       0.00       0.00       7.05       3.87       1.45       5.32        0.10     2.21   0.330
  42                        16.12       0.00       0.00       7.07       3.85       1.36       5.22        0.12     2.53   0.324
  43                        16.12       0.00       0.00       6.84       3.97       2.67       6.64        0.02     0.55   0.412
  44                        16.12     136.68       0.00      13.56      37.21      74.96     112.18        0.42     7.98   0.734
  45                        16.12       0.00       0.00       6.99       3.92       1.86       5.78        0.06     1.30   0.358
  46                        16.12       8.15       0.00       8.07       5.73       3.14       8.86        0.19     3.90   0.365
  47                        16.12       0.00       0.00       6.99       3.92       1.81       5.72        0.06     1.39   0.355
  48                        16.12       4.01       0.00       7.56       4.82       2.49       7.30        0.12     2.44   0.363
  55                        16.12       5.99       0.00       7.68       5.34       3.75       9.09        0.08     1.62   0.411
  56                        16.12       8.96       0.00       8.14       5.91       3.32       9.23        0.20     4.04   0.368
  57                        16.12       0.00       0.00       7.13       3.75       0.98       4.73        0.24     4.91   0.294
  59                        16.12       0.00       0.00       6.96       3.93       2.00       5.93        0.05     1.10   0.368
  60                        16.12      13.04       0.00       8.28       7.07       7.07      14.14        0.07     1.56   0.485
  61                        16.12       0.00       0.00       7.19       3.49       0.55       4.04        0.73    14.68   0.250
  64                        16.12       0.00       0.00       7.00       3.91       1.75       5.66        0.07     1.48   0.351
  
  
  ****************************
  Subcatchment Washoff Summary
  ****************************
  
  ------------------------------------------------------------------------------------------
                                 COD         NH3-N            TN            TP            SS
  Subcatchment                    kg            kg            kg            kg            kg
  ------------------------------------------------------------------------------------------
  1                           21.637         0.000         0.000         0.000         0.000
  2                            0.000         0.000         0.000         0.000         0.000
  3                            0.000         0.000         0.000         0.000         0.000
  35                          21.860         0.000         0.000         0.000         0.000
  36                         129.782         0.000         0.000         0.000         0.000
  40                          41.408         0.000         0.000         0.000         0.000
  41                          15.452         0.000         0.000         0.000         0.000
  42                          17.515         0.000         0.000         0.000         0.000
  43                           4.269         0.000         0.000         0.000         0.000
  44                         116.551         0.000         0.000         0.000         0.000
  45                           9.493         0.000         0.000         0.000         0.000
  46                          50.935         0.000         0.000         0.000         0.000
  47                          10.053         0.000         0.000         0.000         0.000
  48                          24.860         0.000         0.000         0.000         0.000
  55                          19.128         0.000         0.000         0.000         0.000
  56                          55.629         0.000         0.000         0.000         0.000
  57                          32.378         0.000         0.000         0.000         0.000
  59                           8.124         0.000         0.000         0.000         0.000
  60                          22.544         0.000         0.000         0.000         0.000
  61                          88.266         0.000         0.000         0.000         0.000
  64                          10.672         0.000         0.000         0.000         0.000
  ------------------------------------------------------------------------------------------
  System                     700.556         0.000         0.000         0.000         0.000
  
  
  ******************
  Node Depth Summary
  ******************
  
  ---------------------------------------------------------------------------------
                                 Average  Maximum  Maximum  Time of Max    Reported
                                   Depth    Depth      HGL   Occurrence   Max Depth
  Node                 Type       Meters   Meters   Meters  days hr:min      Meters
  ---------------------------------------------------------------------------------
  WS01000070           JUNCTION     0.00     0.00     0.00     0  00:00        0.00
  WS01000323           JUNCTION     0.00     0.00     0.00     0  00:00        0.00
  WS01000533           JUNCTION     0.00     0.00     6.86     0  00:00        0.00
  WS01005172           JUNCTION     0.00     0.00     0.00     0  00:00        0.00
  WS01005181           JUNCTION     0.00     0.00     0.00     0  00:00        0.00
  WS01009841           JUNCTION     0.00     0.00     0.00     0  00:00        0.00
  WS02000078           JUNCTION     0.00     0.00     0.00     0  00:00        0.00
  WS02000112           JUNCTION     0.00     0.00     0.00     0  00:00        0.00
  WS02000136           JUNCTION     0.00     0.00     0.00     0  00:00        0.00
  WS02004053           JUNCTION     0.00     0.00     0.00     0  00:00        0.00
  WS02004401           JUNCTION     2.16     2.33     8.33     0  02:36        2.33
  WS02005192           JUNCTION     0.44     0.73     8.60     0  01:43        0.68
  WS02005193           JUNCTION     0.49     0.88     8.70     0  02:38        0.72
  WS02005196           JUNCTION     0.46     0.70     8.55     0  02:30        0.70
  WS02006109           JUNCTION     1.57     1.79     8.41     0  01:42        1.75
  WS02006110           JUNCTION     1.58     1.79     8.39     0  01:42        1.77
  WS02006111           JUNCTION     1.60     1.80     8.38     0  01:41        1.76
  WS02006112           JUNCTION     2.04     2.24     8.36     0  01:41        2.22
  WS02006113           JUNCTION     1.59     1.80     8.39     0  01:41        1.76
  WS02006115           JUNCTION     2.06     2.24     8.34     0  01:42        2.24
  WS02006116           JUNCTION     2.12     2.30     8.34     0  02:38        2.29
  WS02006183           JUNCTION     0.00     0.00     0.00     0  00:00        0.00
  WS02006228           JUNCTION     1.54     1.77     8.42     0  01:42        1.73
  WS02006229           JUNCTION     1.50     1.74     8.43     0  01:42        1.69
  WS02006230           JUNCTION     1.44     1.70     8.45     0  01:42        1.64
  WS02006231           JUNCTION     1.30     1.55     8.45     0  01:42        1.47
  WS02006232           JUNCTION     1.18     1.44     8.47     0  01:42        1.34
  WS02006234           JUNCTION     1.06     1.34     8.50     0  01:42        1.21
  WS02006235           JUNCTION     1.05     1.36     8.53     0  01:41        1.20
  WS02006238           JUNCTION     1.04     1.35     8.53     0  01:41        1.19
  WS02006239           JUNCTION     1.02     1.38     8.59     0  01:40        1.17
  WS02006242           JUNCTION     0.94     1.55     8.85     0  01:40        1.08
  WS02006240           JUNCTION     0.94     1.39     8.68     0  01:40        1.09
  WS02006243           JUNCTION     0.82     1.24     8.66     0  01:41        0.96
  WS02006245           JUNCTION     0.76     1.08     8.57     0  01:42        0.89
  WS02006247           JUNCTION     0.74     1.07     8.58     0  01:41        0.88
  WS02006248           JUNCTION     0.67     0.80     8.39     0  03:20        0.80
  WS02006249           JUNCTION     0.67     1.09     8.69     0  01:42        0.82
  WS02006251           JUNCTION     0.62     1.84     9.51     0  01:44        0.83
  WS02006253           JUNCTION     0.51     0.74     8.54     0  02:30        0.74
  WS02618401           JUNCTION     0.00     0.00     0.00     0  00:00        0.00
  WSA1649              JUNCTION     0.00     0.00     0.00     0  00:00        0.00
  outfall-5            OUTFALL      0.12     0.20     7.86     0  03:20        0.20
  outfall-14           OUTFALL      0.09     0.13     7.79     0  02:36        0.13
  outfall-16           OUTFALL      0.00     0.00     8.39     0  00:00        0.00
  CC-storage           STORAGE      2.22     5.63     8.81     0  02:19        5.63
  
  
  *******************
  Node Inflow Summary
  *******************
  
  -------------------------------------------------------------------------------------------------
                                  Maximum  Maximum                  Lateral       Total        Flow
                                  Lateral    Total  Time of Max      Inflow      Inflow     Balance
                                   Inflow   Inflow   Occurrence      Volume      Volume       Error
  Node                 Type           MLD      MLD  days hr:min    10^6 ltr    10^6 ltr     Percent
  -------------------------------------------------------------------------------------------------
  WS01000070           JUNCTION      0.00     0.00     0  00:00           0           0       0.000 ltr
  WS01000323           JUNCTION      0.00     0.00     0  00:00           0           0       0.000 ltr
  WS01000533           JUNCTION      0.00     0.00     0  00:00           0           0       0.000 ltr
  WS01005172           JUNCTION      0.00     0.00     0  00:00           0           0       0.000 ltr
  WS01005181           JUNCTION      0.00     0.00     0  00:00           0           0       0.000 ltr
  WS01009841           JUNCTION      0.00     0.00     0  00:00           0           0       0.000 ltr
  WS02000078           JUNCTION      0.00     0.00     0  00:00           0           0       0.000 ltr
  WS02000112           JUNCTION      0.00     0.00     0  00:00           0           0       0.000 ltr
  WS02000136           JUNCTION      0.00     0.00     0  00:00           0           0       0.000 ltr
  WS02004053           JUNCTION      0.00     0.00     0  00:00           0           0       0.000 ltr
  WS02004401           JUNCTION      0.05    17.99     0  02:36      0.0086        1.02       2.863
  WS02005192           JUNCTION      5.00     8.68     0  01:43       0.253       0.255       1.041
  WS02005193           JUNCTION      0.09    16.61     0  01:43       0.014       0.292       2.610
  WS02005196           JUNCTION      0.12    12.82     0  01:43      0.0183       0.276       2.483
  WS02006109           JUNCTION      0.08    14.52     0  03:25      0.0129       0.816       3.026
  WS02006110           JUNCTION      0.08    14.59     0  03:25      0.0126       0.807       3.103
  WS02006111           JUNCTION      0.24    17.49     0  02:36      0.0352        1.06       1.956
  WS02006112           JUNCTION      0.18    17.65     0  02:36      0.0263        1.07       3.117
  WS02006113           JUNCTION      5.14    17.29     0  02:36       0.266        1.05       2.283
  WS02006115           JUNCTION      0.08    17.73     0  02:36      0.0129        1.05       3.652
  WS02006116           JUNCTION      0.24    17.94     0  02:36      0.0347        1.05       3.305
  WS02006183           JUNCTION      0.00     0.00     0  00:00           0           0       0.000 ltr
  WS02006228           JUNCTION      8.13    14.44     0  03:25       0.441       0.833       2.162
  WS02006229           JUNCTION      0.13    10.91     0  01:42      0.0193       0.422       3.803
  WS02006230           JUNCTION      0.07    12.90     0  01:41      0.0111       0.431       6.322
  WS02006231           JUNCTION      0.13    12.79     0  01:41      0.0197       0.438       3.460
  WS02006232           JUNCTION      3.59    14.44     0  01:38        0.18       0.516       2.990
  WS02006234           JUNCTION      0.14    17.60     0  01:39      0.0208       0.435       3.244
  WS02006235           JUNCTION      0.14    19.22     0  01:39      0.0215       0.432       1.844
  WS02006238           JUNCTION      0.15    21.60     0  01:39      0.0226       0.431       2.315
  WS02006239           JUNCTION      0.11    25.00     0  01:40      0.0167       0.432       3.224
  WS02006242           JUNCTION      0.08    33.21     0  01:40      0.0124       0.453       4.112
  WS02006240           JUNCTION      0.06    28.79     0  01:40     0.00952       0.439       3.876
  WS02006243           JUNCTION      0.17    33.92     0  01:41      0.0259       0.467       3.680
  WS02006245           JUNCTION      0.07    35.33     0  01:41      0.0109       0.463       2.852
  WS02006247           JUNCTION      3.47    36.18     0  01:41        0.19       0.567       2.011
  WS02006248           JUNCTION      0.12    39.39     0  02:30      0.0185        1.73       0.615
  WS02006249           JUNCTION      0.19    39.26     0  02:30      0.0275        1.49       0.972
  WS02006251           JUNCTION      1.68    39.06     0  02:30      0.0847        1.47       0.995
  WS02006253           JUNCTION      0.11    38.08     0  02:35      0.0166        1.41       0.528
  WS02618401           JUNCTION      0.00     0.00     0  00:00           0           0       0.000 ltr
  WSA1649              JUNCTION      0.00     0.00     0  00:00           0           0       0.000 ltr
  outfall-5            OUTFALL       0.00    37.24     0  03:20           0        1.47       0.000
  outfall-14           OUTFALL       0.00    17.99     0  02:36           0       0.987       0.000
  outfall-16           OUTFALL       0.00     0.00     0  00:00           0           0       0.000 ltr
  CC-storage           STORAGE      16.14    16.14     0  03:01           1           1     -16.101
  
  
  **********************
  Node Surcharge Summary
  **********************
  
  Surcharging occurs when water rises above the top of the highest conduit.
  ---------------------------------------------------------------------
                                               Max. Height   Min. Depth
                                   Hours       Above Crown    Below Rim
  Node                 Type      Surcharged         Meters       Meters
  ---------------------------------------------------------------------
  WS01000070           JUNCTION        3.83          0.000        0.000
  WS01000323           JUNCTION        3.83          0.000        0.000
  WS01000533           JUNCTION        3.83          0.000        2.147
  WS01005172           JUNCTION        3.83          0.000        0.000
  WS01005181           JUNCTION        3.83          0.000        0.000
  WS01009841           JUNCTION        3.83          0.000        0.000
  WS02000078           JUNCTION        3.83          0.000        0.000
  WS02000112           JUNCTION        3.83          0.000        0.000
  WS02000136           JUNCTION        3.83          0.000        0.000
  WS02004053           JUNCTION        3.83          0.000        0.000
  WS02005192           JUNCTION        0.27          0.133        2.686
  WS02005193           JUNCTION        0.39          0.277        2.340
  WS02005196           JUNCTION        0.29          0.098        2.608
  WS02006109           JUNCTION        2.20          0.989        0.849
  WS02006110           JUNCTION        2.20          0.990        0.855
  WS02006111           JUNCTION        2.20          0.998        0.879
  WS02006112           JUNCTION        2.42          1.238        0.445
  WS02006113           JUNCTION        2.20          1.000        0.933
  WS02006115           JUNCTION        2.45          1.242        1.057
  WS02006116           JUNCTION        2.53          1.297        1.053
  WS02006183           JUNCTION        3.83          0.000        0.000
  WS02006228           JUNCTION        2.20          0.972        1.259
  WS02006229           JUNCTION        2.19          0.941        1.513
  WS02006231           JUNCTION        2.18          0.845        0.698
  WS02006232           JUNCTION        2.17          0.742        0.747
  WS02006234           JUNCTION        2.16          0.635        0.622
  WS02006235           JUNCTION        2.16          0.656        0.638
  WS02006238           JUNCTION        2.16          0.646        0.788
  WS02006239           JUNCTION        2.16          0.683        0.646
  WS02006242           JUNCTION        2.15          0.849        0.000
  WS02006240           JUNCTION        2.15          0.686        0.717
  WS02006243           JUNCTION        2.15          0.545        0.235
  WS02006245           JUNCTION        2.14          0.377        0.478
  WS02006247           JUNCTION        2.14          0.366        0.394
  WS02006249           JUNCTION        1.42          0.388        0.000
  WS02006251           JUNCTION        0.52          1.142        0.368
  WS02006253           JUNCTION        0.23          0.045        2.409
  WS02618401           JUNCTION        3.83          0.000        0.000
  WSA1649              JUNCTION        3.83          0.000        0.000
  
  
  *********************
  Node Flooding Summary
  *********************
  
  Flooding refers to all water that overflows a node, whether it ponds or not.
  --------------------------------------------------------------------------
                                                             Total   Maximum
                                 Maximum   Time of Max       Flood    Ponded
                        Hours       Rate    Occurrence      Volume     Depth
  Node                 Flooded       MLD   days hr:min    10^6 ltr    Meters
  --------------------------------------------------------------------------
  WS02006242              0.01     17.99      0  01:40       0.000     0.000
  WS02006249              0.01     13.96      0  01:42       0.000     0.000
  CC-storage              0.21     14.53      0  03:03       0.083     0.000
  
  
  **********************
  Storage Volume Summary
  **********************
  
  --------------------------------------------------------------------------------------------------
                         Average     Avg  Evap Exfil       Maximum     Max    Time of Max    Maximum
                          Volume    Pcnt  Pcnt  Pcnt        Volume    Pcnt     Occurrence    Outflow
  Storage Unit           1000 m3    Full  Loss  Loss       1000 m3    Full    days hr:min        MLD
  --------------------------------------------------------------------------------------------------
  CC-storage               0.063      39     0     0         0.159     100       0  02:19      34.56
  
  
  ***********************
  Outfall Loading Summary
  ***********************
  
  ---------------------------------------------------------------------------------------------------------------------------------
                         Flow       Avg       Max       Total         Total         Total         Total         Total         Total
                         Freq      Flow      Flow      Volume           COD         NH3-N            TN            TP            SS
  Outfall Node           Pcnt       MLD       MLD    10^6 ltr            kg            kg            kg            kg            kg
  ---------------------------------------------------------------------------------------------------------------------------------
  outfall-5             90.55     17.75     37.24       1.474       160.898         0.000         0.000         0.000         0.000
  outfall-14            90.59     11.57     17.99       0.987       146.502         0.000         0.000         0.000         0.000
  outfall-16             0.00      0.00      0.00       0.000         0.000         0.000         0.000         0.000         0.000
  ---------------------------------------------------------------------------------------------------------------------------------
  System                60.38     29.32     53.50       2.460       307.400         0.000         0.000         0.000         0.000
  
  
  ********************
  Link Flow Summary
  ********************
  
  -----------------------------------------------------------------------------
                                 Maximum  Time of Max   Maximum    Max/    Max/
                                  |Flow|   Occurrence   |Veloc|    Full    Full
  Link                 Type          MLD  days hr:min     m/sec    Flow   Depth
  -----------------------------------------------------------------------------
  WSL2038              CONDUIT      8.42     0  01:43      0.43    0.42    1.00
  WSL2039              CONDUIT     14.32     0  01:42      0.65    0.74    1.00
  WSL2041              CONDUIT     12.70     0  01:43      0.63    0.62    1.00
  WSL2294              CONDUIT     14.52     0  03:25      0.43    0.49    1.00
  WSL2295              CONDUIT     14.60     0  03:25      0.50    0.66    1.00
  WSL2296              CONDUIT     17.50     0  02:36      0.63    0.10    1.00
  WSL2297              CONDUIT     17.65     0  02:36      0.34    0.34    1.00
  WSL2298              CONDUIT     17.29     0  02:36      0.87    0.80    1.00
  WSL2301              CONDUIT     17.73     0  02:36      0.29    0.16    1.00
  WSL2302              CONDUIT     17.94     0  02:36      0.26    0.22    1.00
  WSL2441              CONDUIT     14.44     0  03:25      0.44    0.37    1.00
  WSL2442              CONDUIT     10.78     0  01:42      0.63    0.28    1.00
  WSL2443              CONDUIT     12.83     0  01:41      0.73    0.20    1.00
  WSL2444              CONDUIT     12.65     0  01:41      0.89    0.20    1.00
  WSL2446              CONDUIT     13.43     0  01:38      0.85    0.23    1.00
  WSL2447              CONDUIT     17.47     0  01:39      0.93    0.90    1.00
  WSL2448              CONDUIT     19.07     0  01:39      0.97    0.54    1.00
  WSL2449              CONDUIT     21.45     0  01:39      1.03    0.75    1.00
  WSL2450              CONDUIT     24.89     0  01:40      1.16    0.52    1.00
  WSL2451              CONDUIT     28.73     0  01:40      1.20    1.87    1.00
  WSL2452              CONDUIT     33.12     0  01:40      1.29    0.63    1.00
  WSL2454              CONDUIT     33.74     0  01:41      1.48    0.79    1.00
  WSL2478              CONDUIT     35.26     0  01:41      1.41    1.24    1.00
  WSL2479              CONDUIT     35.42     0  01:41      1.41    0.67    1.00
  WSL2480              CONDUIT     39.28     0  02:30      1.42    1.82    1.00
  WSL2482              CONDUIT     39.10     0  02:30      1.36    1.02    1.00
  WSL2484              CONDUIT     38.17     0  02:30      1.51    0.54    1.00
  WSL2493              CONDUIT     10.92     0  01:42      0.51    0.18    1.00
  8                    CONDUIT     37.24     0  03:20      6.95    0.49    0.50
  19                   CONDUIT      0.00     0  00:00      0.00    0.00    0.00
  17                   CONDUIT     17.99     0  02:36      5.78    0.23    0.33
  CC-Pump-1            PUMP        17.28     0  02:30              1.00
  CC-Pump-2            PUMP        17.28     0  02:30              1.00
  
  
  ***************************
  Flow Classification Summary
  ***************************
  
  -------------------------------------------------------------------------------------
                      Adjusted    ---------- Fraction of Time in Flow Class ---------- 
                       /Actual         Up    Down  Sub   Sup   Up    Down  Norm  Inlet 
  Conduit               Length    Dry  Dry   Dry   Crit  Crit  Crit  Crit  Ltd   Ctrl  
  -------------------------------------------------------------------------------------
  WSL2038                 1.00   0.00  0.00  0.00  1.00  0.00  0.00  0.00  0.01  0.00
  WSL2039                 1.00   0.00  0.00  0.00  1.00  0.00  0.00  0.00  0.00  0.00
  WSL2041                 1.00   0.00  0.00  0.00  1.00  0.00  0.00  0.00  0.31  0.00
  WSL2294                 1.00   0.00  0.00  0.00  1.00  0.00  0.00  0.00  0.00  0.00
  WSL2295                 1.00   0.00  0.00  0.00  1.00  0.00  0.00  0.00  0.00  0.00
  WSL2296                 1.00   0.00  0.00  0.00  1.00  0.00  0.00  0.00  0.17  0.00
  WSL2297                 1.00   0.00  0.00  0.00  1.00  0.00  0.00  0.00  0.00  0.00
  WSL2298                 1.00   0.00  0.00  0.00  0.98  0.02  0.00  0.00  0.00  0.00
  WSL2301                 1.00   0.00  0.00  0.00  1.00  0.00  0.00  0.00  0.04  0.00
  WSL2302                 1.00   0.00  0.00  0.00  1.00  0.00  0.00  0.00  0.01  0.00
  WSL2441                 1.00   0.00  0.00  0.00  1.00  0.00  0.00  0.00  0.00  0.00
  WSL2442                 1.00   0.00  0.00  0.00  1.00  0.00  0.00  0.00  0.17  0.00
  WSL2443                 1.00   0.00  0.00  0.00  1.00  0.00  0.00  0.00  0.31  0.00
  WSL2444                 1.00   0.00  0.00  0.00  0.94  0.06  0.00  0.00  0.24  0.00
  WSL2446                 1.00   0.00  0.00  0.00  0.94  0.06  0.00  0.00  0.03  0.00
  WSL2447                 1.00   0.00  0.00  0.00  1.00  0.00  0.00  0.00  0.00  0.00
  WSL2448                 1.00   0.00  0.00  0.00  1.00  0.00  0.00  0.00  0.00  0.00
  WSL2449                 1.00   0.00  0.00  0.00  1.00  0.00  0.00  0.00  0.02  0.00
  WSL2450                 1.00   0.00  0.00  0.00  1.00  0.00  0.00  0.00  0.41  0.00
  WSL2451                 1.00   0.00  0.00  0.00  1.00  0.00  0.00  0.00  0.00  0.00
  WSL2452                 1.00   0.00  0.00  0.00  1.00  0.00  0.00  0.00  0.39  0.00
  WSL2454                 1.00   0.00  0.00  0.00  1.00  0.00  0.00  0.00  0.01  0.00
  WSL2478                 1.00   0.00  0.00  0.00  1.00  0.00  0.00  0.00  0.00  0.00
  WSL2479                 1.00   0.00  0.00  0.00  1.00  0.00  0.00  0.00  0.40  0.00
  WSL2480                 1.00   0.00  0.00  0.00  1.00  0.00  0.00  0.00  0.00  0.00
  WSL2482                 1.00   0.00  0.00  0.00  1.00  0.00  0.00  0.00  0.39  0.00
  WSL2484                 1.00   0.00  0.00  0.00  1.00  0.00  0.00  0.00  0.38  0.00
  WSL2493                 1.00   0.00  0.00  0.00  1.00  0.00  0.00  0.00  0.05  0.00
  8                       1.00   0.09  0.00  0.00  0.00  0.91  0.00  0.00  0.11  0.00
  19                      1.00   1.00  0.00  0.00  0.00  0.00  0.00  0.00  0.00  0.00
  17                      1.00   0.09  0.00  0.00  0.00  0.91  0.00  0.00  0.03  0.00
  
  
  *************************
  Conduit Surcharge Summary
  *************************
  
  ----------------------------------------------------------------------------
                                                           Hours        Hours 
                         --------- Hours Full --------   Above Full   Capacity
  Conduit                Both Ends  Upstream  Dnstream   Normal Flow   Limited
  ----------------------------------------------------------------------------
  WSL2038                     0.27      0.27      0.29      0.01         0.01
  WSL2039                     0.39      0.39      0.45      0.01         0.01
  WSL2041                     0.29      0.29      0.39      0.01         0.01
  WSL2294                     2.20      2.20      2.20      0.01         0.01
  WSL2295                     2.20      2.20      2.20      0.01         0.03
  WSL2296                     2.20      2.20      2.74      0.01         0.01
  WSL2297                     2.42      2.42      2.45      0.01         0.01
  WSL2298                     2.20      2.20      2.20      0.01         0.03
  WSL2301                     2.45      2.45      2.53      0.01         0.01
  WSL2302                     2.53      2.53      2.60      0.01         0.01
  WSL2441                     2.20      2.20      2.20      0.01         0.01
  WSL2442                     2.20      2.20      2.21      0.01         0.01
  WSL2443                     2.18      2.18      2.20      0.01         0.01
  WSL2444                     2.17      2.17      2.18      0.01         0.01
  WSL2446                     2.16      2.16      2.17      0.01         0.01
  WSL2447                     2.16      2.16      2.16      0.01         0.01
  WSL2448                     2.16      2.16      2.16      0.01         0.01
  WSL2449                     2.15      2.15      2.16      0.01         0.01
  WSL2450                     2.15      2.15      2.15      0.01         0.01
  WSL2451                     2.15      2.15      2.15      0.06         0.01
  WSL2452                     2.15      2.15      2.15      0.01         0.01
  WSL2454                     2.14      2.14      2.15      0.01         0.01
  WSL2478                     2.14      2.14      2.14      0.03         0.01
  WSL2479                     1.53      1.53      2.14      0.01         0.01
  WSL2480                     1.42      1.42      1.53      0.60         0.54
  WSL2482                     0.52      0.52      1.42      0.10         0.13
  WSL2484                     0.23      0.23      0.52      0.01         0.01
  WSL2493                     2.19      2.19      2.20      0.01         0.01
  
  
  ***************
  Pumping Summary
  ***************
  
  ---------------------------------------------------------------------------------------------------------
                                                  Min       Avg       Max     Total     Power    % Time Off
                        Percent   Number of      Flow      Flow      Flow    Volume     Usage    Pump Curve
  Pump                 Utilized   Start-Ups       MLD       MLD       MLD  10^6 ltr     Kw-hr    Low   High
  ---------------------------------------------------------------------------------------------------------
  CC-Pump-1               39.11           3      0.00      9.21     17.28     0.556      5.12    0.0    0.0
  CC-Pump-2               39.11           3      0.00      9.21     17.28     0.556      5.12    0.0    0.0
  
  
  ***************************
  Link Pollutant Load Summary
  ***************************
  
  ------------------------------------------------------------------------------------------
                                 COD         NH3-N            TN            TP            SS
  Link                            kg            kg            kg            kg            kg
  ------------------------------------------------------------------------------------------
  WSL2038                     35.400         0.000         0.000         0.000         0.000
  WSL2039                     41.124         0.000         0.000         0.000         0.000
  WSL2041                     39.002         0.000         0.000         0.000         0.000
  WSL2294                    156.319         0.000         0.000         0.000         0.000
  WSL2295                    153.498         0.000         0.000         0.000         0.000
  WSL2296                    156.987         0.000         0.000         0.000         0.000
  WSL2297                    155.260         0.000         0.000         0.000         0.000
  WSL2298                    153.516         0.000         0.000         0.000         0.000
  WSL2301                    152.622         0.000         0.000         0.000         0.000
  WSL2302                    151.829         0.000         0.000         0.000         0.000
  WSL2441                    158.684         0.000         0.000         0.000         0.000
  WSL2442                     42.949         0.000         0.000         0.000         0.000
  WSL2443                     42.066         0.000         0.000         0.000         0.000
  WSL2444                     39.883         0.000         0.000         0.000         0.000
  WSL2446                     42.583         0.000         0.000         0.000         0.000
  WSL2447                     47.623         0.000         0.000         0.000         0.000
  WSL2448                     49.248         0.000         0.000         0.000         0.000
  WSL2449                     51.075         0.000         0.000         0.000         0.000
  WSL2450                     54.469         0.000         0.000         0.000         0.000
  WSL2451                     57.630         0.000         0.000         0.000         0.000
  WSL2452                     60.230         0.000         0.000         0.000         0.000
  WSL2454                     60.581         0.000         0.000         0.000         0.000
  WSL2478                     61.290         0.000         0.000         0.000         0.000
  WSL2479                     62.759         0.000         0.000         0.000         0.000
  WSL2480                    163.242         0.000         0.000         0.000         0.000
  WSL2482                    159.659         0.000         0.000         0.000         0.000
  WSL2484                    138.705         0.000         0.000         0.000         0.000
  WSL2493                     47.009         0.000         0.000         0.000         0.000
  8                          160.898         0.000         0.000         0.000         0.000
  19                           0.000         0.000         0.000         0.000         0.000
  17                         146.502         0.000         0.000         0.000         0.000
  CC-Pump-1                   48.135         0.000         0.000         0.000         0.000
  CC-Pump-2                   48.135         0.000         0.000         0.000         0.000
  

  Analysis begun on:  Sun Aug 18 09:32:58 2019
  Analysis ended on:  Sun Aug 18 09:32:59 2019
  Total elapsed time: 00:00:01