
  EPA STORM WATER MANAGEMENT MODEL - VERSION 5.1 (Build 5.2.0.dev5)
  --------------------------------------------------------------

  
  *********************************************************
  NOTE: The summary statistics displayed in this report are
  based on results found at every computational time step,  
  not just on results from each reporting time step.
  *********************************************************
  
  ****************
  Analysis Options
  ****************
  Flow Units ............... MLD
  Process Models:
    Rainfall/Runoff ........ YES
    RDII ................... NO
    Snowmelt ............... NO
    Groundwater ............ NO
    Flow Routing ........... YES
    Ponding Allowed ........ NO
    Water Quality .......... YES
  Infiltration Method ...... GREEN_AMPT
  Flow Routing Method ...... DYNWAVE
  Surcharge Method ......... EXTRAN
  Starting Date ............ 08/28/2015 08:00:00
  Ending Date .............. 08/28/2015 11:50:00
  Antecedent Dry Days ...... 4.0
  Report Time Step ......... 00:01:00
  Wet Time Step ............ 00:01:00
  Dry Time Step ............ 00:01:00
  Routing Time Step ........ 5.00 sec
  Variable Time Step ....... YES
  Maximum Trials ........... 8
  Number of Threads ........ 1
  Head Tolerance ........... 0.001500 m
  
  
  **************************        Volume         Depth
  Runoff Quantity Continuity     hectare-m            mm
  **************************     ---------       -------
  Total Precipitation ......         2.951        47.700
  Evaporation Loss .........         0.000         0.000
  Infiltration Loss ........         0.766        12.383
  Surface Runoff ...........         1.059        17.120
  Final Storage ............         1.126        18.199
  Continuity Error (%) .....        -0.005
  
  
  **************************           COD         NH3-N            TN            TP            SS
  Runoff Quality Continuity             kg            kg            kg            kg            kg
  **************************    ----------    ----------    ----------    ----------    ----------
  Initial Buildup ..........      2504.640         0.000         0.000         0.000         0.000
  Surface Buildup ..........        19.140         0.000         0.000         0.000         0.000
  Wet Deposition ...........         0.000         0.000         0.000         0.000         0.000
  Sweeping Removal .........         0.000         0.000         0.000         0.000         0.000
  Infiltration Loss ........       206.460         0.000         0.000         0.000         0.000
  BMP Removal ..............         0.000         0.000         0.000         0.000         0.000
  Surface Runoff ...........      1751.858         0.000         0.000         0.000         0.000
  Remaining Buildup ........       570.275         0.000         0.000         0.000         0.000
  Continuity Error (%) .....        -0.191         0.000         0.000         0.000         0.000
  
  
  **************************        Volume        Volume
  Flow Routing Continuity        hectare-m      10^6 ltr
  **************************     ---------     ---------
  Dry Weather Inflow .......         0.000         0.000
  Wet Weather Inflow .......         1.057        10.566
  Groundwater Inflow .......         0.000         0.000
  RDII Inflow ..............         0.000         0.000
  External Inflow ..........         0.082         0.822
  External Outflow .........         1.008        10.081
  Flooding Loss ............         0.098         0.978
  Evaporation Loss .........         0.000         0.000
  Exfiltration Loss ........         0.000         0.000
  Initial Stored Volume ....         0.000         0.000
  Final Stored Volume ......         0.047         0.470
  Continuity Error (%) .....        -1.240
  
  
  **************************           COD         NH3-N            TN            TP            SS
  Quality Routing Continuity            kg            kg            kg            kg            kg
  **************************    ----------    ----------    ----------    ----------    ----------
  Dry Weather Inflow .......         0.000         0.000         0.000         0.000         0.000
  Wet Weather Inflow .......      1750.213         0.000         0.000         0.000         0.000
  Groundwater Inflow .......         0.000         0.000         0.000         0.000         0.000
  RDII Inflow ..............         0.000         0.000         0.000         0.000         0.000
  External Inflow ..........       137.263         0.000         0.000         0.000         0.000
  External Outflow .........      1576.999         0.000         0.000         0.000         0.000
  Flooding Loss ............       262.419         0.000         0.000         0.000         0.000
  Exfiltration Loss ........         0.000         0.000         0.000         0.000         0.000
  Mass Reacted .............         0.000         0.000         0.000         0.000         0.000
  Initial Stored Mass ......         0.000         0.000         0.000         0.000         0.000
  Final Stored Mass ........        33.539         0.000         0.000         0.000         0.000
  Continuity Error (%) .....         0.769         0.000         0.000         0.000         0.000
  
  
  *************************
  Highest Continuity Errors
  *************************
  Node WS02006230 (5.97%)
  Node WS02006229 (3.49%)
  Node WS02006231 (3.11%)
  Node WS02006242 (1.72%)
  Node WS02006240 (1.50%)
  
  
  ***************************
  Time-Step Critical Elements
  ***************************
  Link 8 (51.79%)
  Link 17 (41.44%)
  Link WSL2448 (5.71%)
  
  
  ********************************
  Highest Flow Instability Indexes
  ********************************
  Link WSL2302 (2)
  Link 8 (2)
  Link WSL2301 (2)
  Link WSL2297 (1)
  
  
  *************************
  Routing Time Step Summary
  *************************
  Minimum Time Step           :     0.43 sec
  Average Time Step           :     0.78 sec
  Maximum Time Step           :     5.00 sec
  Percent in Steady State     :     0.00
  Average Iterations per Step :     2.10
  Percent Not Converging      :     1.05
  
  
  ***************************
  Subcatchment Runoff Summary
  ***************************
  
  ------------------------------------------------------------------------------------------------------------------------------
                            Total      Total      Total      Total     Imperv       Perv      Total       Total     Peak  Runoff
                           Precip      Runon       Evap      Infil     Runoff     Runoff     Runoff      Runoff   Runoff   Coeff
  Subcatchment                 mm         mm         mm         mm         mm         mm         mm    10^6 ltr      MLD
  ------------------------------------------------------------------------------------------------------------------------------
  1                         47.70      97.27       0.00      15.23      35.04      62.10      97.14        1.18    18.71   0.670
  2                         47.70       0.00       0.00      11.49      11.69      11.58      23.27        0.78    13.34   0.488
  3                         47.70       0.00       0.00      11.68      11.62      10.14      21.76        1.11    18.82   0.456
  35                        47.70       0.00       0.00      11.43      11.70      11.97      23.67        0.72    12.21   0.496
  36                        47.70      50.90       0.00      14.95      23.37      26.43      49.80        2.94    43.94   0.505
  40                        47.70      12.55       0.00      12.48      14.58      15.37      29.95        1.17    18.47   0.497
  41                        47.70       0.00       0.00      11.20      11.75      13.61      25.36        0.49     8.44   0.532
  42                        47.70       0.00       0.00      11.29      11.74      13.01      24.74        0.56     9.65   0.519
  43                        47.70       0.00       0.00      10.11      11.87      19.72      31.58        0.11     2.11   0.662
  44                        47.70     819.96       0.00      23.67     214.09     551.70     765.79        2.83    45.38   0.883
  45                        47.70       0.00       0.00      10.82      11.81      15.98      27.79        0.29     5.01   0.583
  46                        47.70      42.12       0.00      13.76      21.71      30.97      52.68        1.13    17.00   0.586
  47                        47.70       0.00       0.00      10.87      11.80      15.70      27.50        0.31     5.33   0.577
  48                        47.70      19.27       0.00      12.33      16.35      22.78      39.13        0.62     9.73   0.584
  55                        47.70      28.83       0.00      12.33      18.76      31.21      49.97        0.41     6.63   0.653
  56                        47.70      45.74       0.00      13.94      22.59      32.68      55.27        1.18    17.95   0.591
  57                        47.70       0.00       0.00      11.67      11.62      10.21      21.83        1.09    18.51   0.458
  59                        47.70       0.00       0.00      10.69      11.82      16.73      28.56        0.24     4.24   0.599
  60                        47.70      62.62       0.00      13.29      27.08      53.29      80.37        0.42     6.76   0.729
  61                        47.70       0.00       0.00      12.13      11.28       6.39      17.68        3.18    54.12   0.371
  64                        47.70       0.00       0.00      10.92      11.80      15.41      27.20        0.33     5.68   0.570
  
  
  ****************************
  Subcatchment Washoff Summary
  ****************************
  
  ------------------------------------------------------------------------------------------
                                 COD         NH3-N            TN            TP            SS
  Subcatchment                    kg            kg            kg            kg            kg
  ------------------------------------------------------------------------------------------
  1                          156.729         0.000         0.000         0.000         0.000
  2                            0.000         0.000         0.000         0.000         0.000
  3                            0.000         0.000         0.000         0.000         0.000
  35                         135.828         0.000         0.000         0.000         0.000
  36                         602.414         0.000         0.000         0.000         0.000
  40                         230.047         0.000         0.000         0.000         0.000
  41                          88.389         0.000         0.000         0.000         0.000
  42                         103.334         0.000         0.000         0.000         0.000
  43                          16.938         0.000         0.000         0.000         0.000
  44                         593.421         0.000         0.000         0.000         0.000
  45                          47.703         0.000         0.000         0.000         0.000
  46                         204.662         0.000         0.000         0.000         0.000
  47                          51.327         0.000         0.000         0.000         0.000
  48                         108.469         0.000         0.000         0.000         0.000
  55                          68.313         0.000         0.000         0.000         0.000
  56                         215.852         0.000         0.000         0.000         0.000
  57                         218.724         0.000         0.000         0.000         0.000
  59                          39.058         0.000         0.000         0.000         0.000
  60                          70.151         0.000         0.000         0.000         0.000
  61                         714.671         0.000         0.000         0.000         0.000
  64                          55.391         0.000         0.000         0.000         0.000
  ------------------------------------------------------------------------------------------
  System                    3721.422         0.000         0.000         0.000         0.000
  
  
  ******************
  Node Depth Summary
  ******************
  
  ---------------------------------------------------------------------------------
                                 Average  Maximum  Maximum  Time of Max    Reported
                                   Depth    Depth      HGL   Occurrence   Max Depth
  Node                 Type       Meters   Meters   Meters  days hr:min      Meters
  ---------------------------------------------------------------------------------
  WS01000070           JUNCTION     0.00     0.00     0.00     0  00:00        0.00
  WS01000323           JUNCTION     0.00     0.00     0.00     0  00:00        0.00
  WS01000533           JUNCTION     0.00     0.00     6.86     0  00:00        0.00
  WS01005172           JUNCTION     0.00     0.00     0.00     0  00:00        0.00
  WS01005181           JUNCTION     0.00     0.00     0.00     0  00:00        0.00
  WS01009841           JUNCTION     0.00     0.00     0.00     0  00:00        0.00
  WS02000078           JUNCTION     0.00     0.00     0.00     0  00:00        0.00
  WS02000112           JUNCTION     0.00     0.00     0.00     0  00:00        0.00
  WS02000136           JUNCTION     0.00     0.00     0.00     0  00:00        0.00
  WS02004053           JUNCTION     0.00     0.00     0.00     0  00:00        0.00
  WS02004401           JUNCTION     2.29     2.46     8.46     0  02:42        2.46
  WS02005192           JUNCTION     0.82     2.99    10.86     0  01:31        1.12
  WS02005193           JUNCTION     0.85     3.22    11.04     0  01:31        1.13
  WS02005196           JUNCTION     0.83     1.86     9.71     0  01:31        1.13
  WS02006109           JUNCTION     1.82     2.09     8.71     0  03:00        2.09
  WS02006110           JUNCTION     1.82     2.07     8.67     0  03:00        2.07
  WS02006111           JUNCTION     1.78     1.99     8.57     0  02:41        1.99
  WS02006112           JUNCTION     2.21     2.40     8.52     0  03:00        2.40
  WS02006113           JUNCTION     1.81     2.05     8.64     0  02:41        2.05
  WS02006115           JUNCTION     2.22     2.40     8.50     0  02:41        2.40
  WS02006116           JUNCTION     2.27     2.44     8.48     0  02:42        2.44
  WS02006183           JUNCTION     0.00     0.00     0.00     0  00:00        0.00
  WS02006228           JUNCTION     1.81     2.10     8.75     0  03:00        2.09
  WS02006229           JUNCTION     1.77     2.06     8.75     0  03:00        2.05
  WS02006230           JUNCTION     1.71     1.99     8.74     0  02:52        1.99
  WS02006231           JUNCTION     1.57     1.84     8.74     0  02:52        1.84
  WS02006232           JUNCTION     1.45     1.71     8.74     0  03:00        1.71
  WS02006234           JUNCTION     1.32     1.58     8.74     0  03:00        1.57
  WS02006235           JUNCTION     1.31     1.56     8.73     0  03:00        1.56
  WS02006238           JUNCTION     1.30     1.55     8.73     0  03:00        1.55
  WS02006239           JUNCTION     1.27     1.51     8.72     0  03:00        1.51
  WS02006242           JUNCTION     1.18     1.50     8.80     0  01:30        1.40
  WS02006240           JUNCTION     1.19     1.42     8.71     0  03:00        1.42
  WS02006243           JUNCTION     1.06     1.31     8.73     0  01:30        1.27
  WS02006245           JUNCTION     0.99     1.20     8.69     0  02:15        1.19
  WS02006247           JUNCTION     0.97     1.17     8.68     0  02:15        1.17
  WS02006248           JUNCTION     0.88     1.08     8.67     0  02:15        1.05
  WS02006249           JUNCTION     0.91     1.09     8.69     0  01:30        1.09
  WS02006251           JUNCTION     0.94     2.17     9.84     0  01:30        1.19
  WS02006253           JUNCTION     0.86     2.45    10.25     0  01:31        1.13
  WS02618401           JUNCTION     0.00     0.00     0.00     0  00:00        0.00
  WSA1649              JUNCTION     0.00     0.00     0.00     0  00:00        0.00
  outfall-5            OUTFALL      0.29     0.40     8.07     0  02:13        0.40
  outfall-14           OUTFALL      0.19     0.26     7.92     0  02:42        0.26
  outfall-16           OUTFALL      0.00     0.00     8.39     0  00:00        0.00
  CC-storage           STORAGE      4.04     5.63     8.81     0  01:48        5.63
  
  
  *******************
  Node Inflow Summary
  *******************
  
  -------------------------------------------------------------------------------------------------
                                  Maximum  Maximum                  Lateral       Total        Flow
                                  Lateral    Total  Time of Max      Inflow      Inflow     Balance
                                   Inflow   Inflow   Occurrence      Volume      Volume       Error
  Node                 Type           MLD      MLD  days hr:min    10^6 ltr    10^6 ltr     Percent
  -------------------------------------------------------------------------------------------------
  WS01000070           JUNCTION      0.00     0.00     0  00:00           0           0       0.000 ltr
  WS01000323           JUNCTION      0.00     0.00     0  00:00           0           0       0.000 ltr
  WS01000533           JUNCTION      0.00     0.00     0  00:00           0           0       0.000 ltr
  WS01005172           JUNCTION      0.00     0.00     0  00:00           0           0       0.000 ltr
  WS01005181           JUNCTION      0.00     0.00     0  00:00           0           0       0.000 ltr
  WS01009841           JUNCTION      0.00     0.00     0  00:00           0           0       0.000 ltr
  WS02000078           JUNCTION      0.00     0.00     0  00:00           0           0       0.000 ltr
  WS02000112           JUNCTION      0.00     0.00     0  00:00           0           0       0.000 ltr
  WS02000136           JUNCTION      0.00     0.00     0  00:00           0           0       0.000 ltr
  WS02004053           JUNCTION      0.00     0.00     0  00:00           0           0       0.000 ltr
  WS02004401           JUNCTION      0.05    57.96     0  02:42      0.0086        3.99       0.739
  WS02005192           JUNCTION     18.61    18.61     0  02:21        1.11        1.11       0.305
  WS02005193           JUNCTION      0.09    20.05     0  01:31       0.014        1.13       0.743
  WS02005196           JUNCTION      0.12    18.72     0  02:21      0.0183        1.12       0.746
  WS02006109           JUNCTION      0.08    41.99     0  03:01      0.0129        2.92       0.830
  WS02006110           JUNCTION      0.08    42.06     0  03:01      0.0126        2.91       0.842
  WS02006111           JUNCTION      0.24    57.46     0  02:42      0.0352        4.02       0.510
  WS02006112           JUNCTION      0.18    57.62     0  02:42      0.0263        4.03       0.800
  WS02006113           JUNCTION     18.97    57.26     0  02:42        1.13        4.02       0.587
  WS02006115           JUNCTION      0.08    57.70     0  02:42      0.0129        4.02       0.924
  WS02006116           JUNCTION      0.24    57.91     0  02:42      0.0347        4.02       0.833
  WS02006183           JUNCTION      0.00     0.00     0  00:00           0           0       0.000 ltr
  WS02006228           JUNCTION     45.53    45.53     0  03:01        2.85         3.1       0.575
  WS02006229           JUNCTION      0.13    10.78     0  01:31      0.0193       0.447       3.618
  WS02006230           JUNCTION      0.07    11.78     0  01:30      0.0111       0.462       6.347
  WS02006231           JUNCTION      0.13    11.64     0  01:30      0.0197       0.473       3.208
  WS02006232           JUNCTION     13.41    14.67     0  02:45       0.796        1.14       1.345
  WS02006234           JUNCTION      0.14    14.79     0  02:45      0.0208        1.02       1.342
  WS02006235           JUNCTION      0.14    15.51     0  01:27      0.0215        1.03       0.757
  WS02006238           JUNCTION      0.15    17.99     0  01:28      0.0226        1.04       0.957
  WS02006239           JUNCTION      0.11    22.71     0  01:28      0.0167        1.06       1.397
  WS02006242           JUNCTION      0.08    31.03     0  01:29      0.0124        1.09       1.752
  WS02006240           JUNCTION      0.06    26.99     0  01:28     0.00952        1.07       1.525
  WS02006243           JUNCTION      0.17    32.67     0  01:29      0.0259        1.12       1.492
  WS02006245           JUNCTION      0.07    34.69     0  01:29      0.0109        1.12       1.169
  WS02006247           JUNCTION     18.85    37.72     0  01:30         1.2        2.29       0.505
  WS02006248           JUNCTION      0.12    80.78     0  02:15      0.0185        6.31       0.187
  WS02006249           JUNCTION      0.19    60.20     0  02:22      0.0275        4.56       0.317
  WS02006251           JUNCTION      6.69    60.04     0  02:22       0.423        4.54       0.340
  WS02006253           JUNCTION      0.11    53.47     0  02:21      0.0166        4.13       0.225
  WS02618401           JUNCTION      0.00     0.00     0  00:00           0           0       0.000 ltr
  WSA1649              JUNCTION      0.00     0.00     0  00:00           0           0       0.000 ltr
  outfall-5            OUTFALL       0.00    80.16     0  02:15           0        6.13       0.000
  outfall-14           OUTFALL       0.00    57.96     0  02:42           0        3.95       0.000
  outfall-16           OUTFALL       0.00     0.00     0  00:00           0           0       0.000 ltr
  CC-storage           STORAGE      55.74    55.74     0  02:23        3.45        3.45      -4.910
  
  
  **********************
  Node Surcharge Summary
  **********************
  
  Surcharging occurs when water rises above the top of the highest conduit.
  ---------------------------------------------------------------------
                                               Max. Height   Min. Depth
                                   Hours       Above Crown    Below Rim
  Node                 Type      Surcharged         Meters       Meters
  ---------------------------------------------------------------------
  WS01000070           JUNCTION        3.83          0.000        0.000
  WS01000323           JUNCTION        3.83          0.000        0.000
  WS01000533           JUNCTION        3.83          0.000        2.147
  WS01005172           JUNCTION        3.83          0.000        0.000
  WS01005181           JUNCTION        3.83          0.000        0.000
  WS01009841           JUNCTION        3.83          0.000        0.000
  WS02000078           JUNCTION        3.83          0.000        0.000
  WS02000112           JUNCTION        3.83          0.000        0.000
  WS02000136           JUNCTION        3.83          0.000        0.000
  WS02004053           JUNCTION        3.83          0.000        0.000
  WS02005192           JUNCTION        1.94          2.394        0.425
  WS02005193           JUNCTION        1.98          2.617        0.000
  WS02005196           JUNCTION        1.95          1.260        1.446
  WS02006109           JUNCTION        2.39          1.293        0.545
  WS02006110           JUNCTION        2.40          1.274        0.571
  WS02006111           JUNCTION        2.40          1.189        0.688
  WS02006112           JUNCTION        2.52          1.401        0.282
  WS02006113           JUNCTION        2.40          1.249        0.684
  WS02006115           JUNCTION        2.53          1.397        0.902
  WS02006116           JUNCTION        2.58          1.440        0.910
  WS02006183           JUNCTION        3.83          0.000        0.000
  WS02006228           JUNCTION        2.39          1.297        0.934
  WS02006229           JUNCTION        2.39          1.256        1.198
  WS02006231           JUNCTION        2.37          1.144        0.399
  WS02006232           JUNCTION        2.36          1.014        0.475
  WS02006234           JUNCTION        2.36          0.877        0.380
  WS02006235           JUNCTION        2.35          0.862        0.432
  WS02006238           JUNCTION        2.35          0.850        0.584
  WS02006239           JUNCTION        2.35          0.812        0.517
  WS02006242           JUNCTION        2.34          0.803        0.046
  WS02006240           JUNCTION        2.35          0.724        0.679
  WS02006243           JUNCTION        2.34          0.606        0.174
  WS02006245           JUNCTION        2.33          0.497        0.358
  WS02006247           JUNCTION        2.33          0.474        0.286
  WS02006248           JUNCTION        0.95          0.077        0.000
  WS02006249           JUNCTION        2.29          0.388        0.000
  WS02006251           JUNCTION        2.04          1.468        0.042
  WS02006253           JUNCTION        1.91          1.749        0.705
  WS02618401           JUNCTION        3.83          0.000        0.000
  WSA1649              JUNCTION        3.83          0.000        0.000
  
  
  *********************
  Node Flooding Summary
  *********************
  
  Flooding refers to all water that overflows a node, whether it ponds or not.
  --------------------------------------------------------------------------
                                                             Total   Maximum
                                 Maximum   Time of Max       Flood    Ponded
                        Hours       Rate    Occurrence      Volume     Depth
  Node                 Flooded       MLD   days hr:min    10^6 ltr    Meters
  --------------------------------------------------------------------------
  WS02005193              0.01     11.50      0  01:31       0.000     0.000
  WS02006248              0.01      2.79      0  02:15       0.000     0.000
  WS02006249              0.89     18.34      0  01:30       0.342     0.000
  CC-storage              1.09     21.63      0  01:50       0.636     0.000
  
  
  **********************
  Storage Volume Summary
  **********************
  
  --------------------------------------------------------------------------------------------------
                         Average     Avg  Evap Exfil       Maximum     Max    Time of Max    Maximum
                          Volume    Pcnt  Pcnt  Pcnt        Volume    Pcnt     Occurrence    Outflow
  Storage Unit           1000 m3    Full  Loss  Loss       1000 m3    Full    days hr:min        MLD
  --------------------------------------------------------------------------------------------------
  CC-storage               0.114      72     0     0         0.159     100       0  01:48      34.56
  
  
  ***********************
  Outfall Loading Summary
  ***********************
  
  ---------------------------------------------------------------------------------------------------------------------------------
                         Flow       Avg       Max       Total         Total         Total         Total         Total         Total
                         Freq      Flow      Flow      Volume           COD         NH3-N            TN            TP            SS
  Outfall Node           Pcnt       MLD       MLD    10^6 ltr            kg            kg            kg            kg            kg
  ---------------------------------------------------------------------------------------------------------------------------------
  outfall-5             93.21     63.83     80.16       6.126       971.082         0.000         0.000         0.000         0.000
  outfall-14            93.25     41.12     57.96       3.955       605.940         0.000         0.000         0.000         0.000
  outfall-16             0.00      0.00      0.00       0.000         0.000         0.000         0.000         0.000         0.000
  ---------------------------------------------------------------------------------------------------------------------------------
  System                62.16    104.95    137.32      10.081      1577.021         0.000         0.000         0.000         0.000
  
  
  ********************
  Link Flow Summary
  ********************
  
  -----------------------------------------------------------------------------
                                 Maximum  Time of Max   Maximum    Max/    Max/
                                  |Flow|   Occurrence   |Veloc|    Full    Full
  Link                 Type          MLD  days hr:min     m/sec    Flow   Depth
  -----------------------------------------------------------------------------
  WSL2038              CONDUIT     18.61     0  02:21      0.76    0.93    1.00
  WSL2039              CONDUIT     18.81     0  02:21      0.84    0.97    1.00
  WSL2041              CONDUIT     18.72     0  02:21      0.77    0.92    1.00
  WSL2294              CONDUIT     41.99     0  03:01      0.97    1.41    1.00
  WSL2295              CONDUIT     42.06     0  03:01      0.97    1.89    1.00
  WSL2296              CONDUIT     57.46     0  02:42      1.32    0.32    1.00
  WSL2297              CONDUIT     57.62     0  02:42      0.85    1.10    1.00
  WSL2298              CONDUIT     57.26     0  02:42      1.32    2.64    1.00
  WSL2301              CONDUIT     57.70     0  02:42      0.85    0.53    1.00
  WSL2302              CONDUIT     57.91     0  02:42      0.85    0.71    1.00
  WSL2441              CONDUIT     41.91     0  03:01      0.97    1.07    1.00
  WSL2442              CONDUIT     10.65     0  01:31      0.63    0.27    1.00
  WSL2443              CONDUIT     11.71     0  01:30      0.73    0.18    1.00
  WSL2444              CONDUIT     11.51     0  01:30      1.00    0.18    1.00
  WSL2446              CONDUIT     14.67     0  02:45      0.94    0.25    1.00
  WSL2447              CONDUIT     14.79     0  02:45      0.94    0.76    1.00
  WSL2448              CONDUIT     15.37     0  01:27      0.92    0.43    1.00
  WSL2449              CONDUIT     17.84     0  01:28      0.99    0.62    1.00
  WSL2450              CONDUIT     22.60     0  01:28      1.14    0.47    1.00
  WSL2451              CONDUIT     26.92     0  01:28      1.19    1.76    1.00
  WSL2452              CONDUIT     30.95     0  01:29      1.29    0.59    1.00
  WSL2454              CONDUIT     32.50     0  01:29      1.47    0.76    1.00
  WSL2478              CONDUIT     34.62     0  01:29      1.41    1.22    1.00
  WSL2479              CONDUIT     35.81     0  01:30      1.38    0.68    1.00
  WSL2480              CONDUIT     58.42     0  02:15      1.76    2.70    1.00
  WSL2482              CONDUIT     60.04     0  02:22      1.81    1.56    1.00
  WSL2484              CONDUIT     53.47     0  02:21      1.61    0.75    1.00
  WSL2493              CONDUIT     10.80     0  01:31      0.51    0.18    1.00
  8                    CONDUIT     80.16     0  02:15      7.96    1.06    1.00
  19                   CONDUIT      0.00     0  00:00      0.00    0.00    0.00
  17                   CONDUIT     57.96     0  02:42      7.79    0.75    0.65
  CC-Pump-1            PUMP        17.28     0  02:00              1.00
  CC-Pump-2            PUMP        17.28     0  02:00              1.00
  
  
  ***************************
  Flow Classification Summary
  ***************************
  
  -------------------------------------------------------------------------------------
                      Adjusted    ---------- Fraction of Time in Flow Class ---------- 
                       /Actual         Up    Down  Sub   Sup   Up    Down  Norm  Inlet 
  Conduit               Length    Dry  Dry   Dry   Crit  Crit  Crit  Crit  Ltd   Ctrl  
  -------------------------------------------------------------------------------------
  WSL2038                 1.00   0.00  0.00  0.00  1.00  0.00  0.00  0.00  0.01  0.00
  WSL2039                 1.00   0.00  0.00  0.00  1.00  0.00  0.00  0.00  0.00  0.00
  WSL2041                 1.00   0.00  0.00  0.00  1.00  0.00  0.00  0.00  0.27  0.00
  WSL2294                 1.00   0.00  0.00  0.00  1.00  0.00  0.00  0.00  0.00  0.00
  WSL2295                 1.00   0.00  0.00  0.00  1.00  0.00  0.00  0.00  0.00  0.00
  WSL2296                 1.00   0.00  0.00  0.00  1.00  0.00  0.00  0.00  0.17  0.00
  WSL2297                 1.00   0.00  0.00  0.00  1.00  0.00  0.00  0.00  0.00  0.00
  WSL2298                 1.00   0.00  0.00  0.00  0.99  0.01  0.00  0.00  0.00  0.00
  WSL2301                 1.00   0.00  0.00  0.00  1.00  0.00  0.00  0.00  0.04  0.00
  WSL2302                 1.00   0.00  0.00  0.00  1.00  0.00  0.00  0.00  0.01  0.00
  WSL2441                 1.00   0.00  0.00  0.00  1.00  0.00  0.00  0.00  0.00  0.00
  WSL2442                 1.00   0.00  0.00  0.00  1.00  0.00  0.00  0.00  0.17  0.00
  WSL2443                 1.00   0.00  0.00  0.00  1.00  0.00  0.00  0.00  0.30  0.00
  WSL2444                 1.00   0.00  0.00  0.00  0.95  0.05  0.00  0.00  0.21  0.00
  WSL2446                 1.00   0.00  0.00  0.00  0.96  0.04  0.00  0.00  0.06  0.00
  WSL2447                 1.00   0.00  0.00  0.00  1.00  0.00  0.00  0.00  0.00  0.00
  WSL2448                 1.00   0.00  0.00  0.00  1.00  0.00  0.00  0.00  0.00  0.00
  WSL2449                 1.00   0.00  0.00  0.00  1.00  0.00  0.00  0.00  0.02  0.00
  WSL2450                 1.00   0.00  0.00  0.00  1.00  0.00  0.00  0.00  0.34  0.00
  WSL2451                 1.00   0.00  0.00  0.00  1.00  0.00  0.00  0.00  0.00  0.00
  WSL2452                 1.00   0.00  0.00  0.00  1.00  0.00  0.00  0.00  0.35  0.00
  WSL2454                 1.00   0.00  0.00  0.00  1.00  0.00  0.00  0.00  0.01  0.00
  WSL2478                 1.00   0.00  0.00  0.00  1.00  0.00  0.00  0.00  0.00  0.00
  WSL2479                 1.00   0.00  0.00  0.00  1.00  0.00  0.00  0.00  0.35  0.00
  WSL2480                 1.00   0.00  0.00  0.00  1.00  0.00  0.00  0.00  0.00  0.00
  WSL2482                 1.00   0.00  0.00  0.00  1.00  0.00  0.00  0.00  0.33  0.00
  WSL2484                 1.00   0.00  0.00  0.00  1.00  0.00  0.00  0.00  0.34  0.00
  WSL2493                 1.00   0.00  0.00  0.00  1.00  0.00  0.00  0.00  0.05  0.00
  8                       1.00   0.07  0.00  0.00  0.39  0.54  0.00  0.00  0.03  0.00
  19                      1.00   1.00  0.00  0.00  0.00  0.00  0.00  0.00  0.00  0.00
  17                      1.00   0.07  0.00  0.00  0.00  0.93  0.00  0.00  0.02  0.00
  
  
  *************************
  Conduit Surcharge Summary
  *************************
  
  ----------------------------------------------------------------------------
                                                           Hours        Hours 
                         --------- Hours Full --------   Above Full   Capacity
  Conduit                Both Ends  Upstream  Dnstream   Normal Flow   Limited
  ----------------------------------------------------------------------------
  WSL2038                     1.94      1.94      1.95      0.01         0.01
  WSL2039                     1.98      1.98      2.01      0.01         0.01
  WSL2041                     1.94      1.95      1.98      0.01         0.01
  WSL2294                     2.39      2.39      2.40      1.25         1.27
  WSL2295                     2.40      2.40      2.40      1.71         1.78
  WSL2296                     2.40      2.40      2.74      0.01         0.01
  WSL2297                     2.52      2.52      2.53      0.83         0.84
  WSL2298                     2.40      2.40      2.40      1.89         1.99
  WSL2301                     2.53      2.53      2.58      0.01         0.01
  WSL2302                     2.58      2.58      2.62      0.01         0.01
  WSL2441                     2.39      2.39      2.39      0.64         0.65
  WSL2442                     2.39      2.39      2.40      0.01         0.01
  WSL2443                     2.37      2.37      2.39      0.01         0.01
  WSL2444                     2.36      2.36      2.37      0.01         0.01
  WSL2446                     2.36      2.36      2.36      0.01         0.01
  WSL2447                     2.35      2.35      2.36      0.01         0.02
  WSL2448                     2.35      2.35      2.35      0.01         0.01
  WSL2449                     2.35      2.35      2.35      0.01         0.01
  WSL2450                     2.34      2.35      2.35      0.01         0.01
  WSL2451                     2.34      2.34      2.35      0.05         0.03
  WSL2452                     2.34      2.34      2.34      0.01         0.01
  WSL2454                     2.33      2.33      2.34      0.01         0.01
  WSL2478                     2.33      2.33      2.33      0.03         0.01
  WSL2479                     2.33      2.33      2.33      0.01         0.01
  WSL2480                     2.29      2.29      2.33      2.10         2.04
  WSL2482                     2.04      2.04      2.29      1.87         1.89
  WSL2484                     1.91      1.91      2.04      0.01         0.01
  WSL2493                     2.39      2.39      2.39      0.01         0.01
  8                           0.95      0.95      1.04      1.05         0.95
  
  
  ***************
  Pumping Summary
  ***************
  
  ---------------------------------------------------------------------------------------------------------
                                                  Min       Avg       Max     Total     Power    % Time Off
                        Percent   Number of      Flow      Flow      Flow    Volume     Usage    Pump Curve
  Pump                 Utilized   Start-Ups       MLD       MLD       MLD  10^6 ltr     Kw-hr    Low   High
  ---------------------------------------------------------------------------------------------------------
  CC-Pump-1               60.84           2      0.00     15.91     17.28     1.498      5.61    0.0    0.0
  CC-Pump-2               60.84           2      0.00     15.91     17.28     1.498      5.61    0.0    0.0
  
  
  ***************************
  Link Pollutant Load Summary
  ***************************
  
  ------------------------------------------------------------------------------------------
                                 COD         NH3-N            TN            TP            SS
  Link                            kg            kg            kg            kg            kg
  ------------------------------------------------------------------------------------------
  WSL2038                    222.106         0.000         0.000         0.000         0.000
  WSL2039                    227.931         0.000         0.000         0.000         0.000
  WSL2041                    225.729         0.000         0.000         0.000         0.000
  WSL2294                    600.480         0.000         0.000         0.000         0.000
  WSL2295                    598.879         0.000         0.000         0.000         0.000
  WSL2296                    605.263         0.000         0.000         0.000         0.000
  WSL2297                    607.941         0.000         0.000         0.000         0.000
  WSL2298                    600.565         0.000         0.000         0.000         0.000
  WSL2301                    607.944         0.000         0.000         0.000         0.000
  WSL2302                    611.269         0.000         0.000         0.000         0.000
  WSL2441                    601.252         0.000         0.000         0.000         0.000
  WSL2442                     49.196         0.000         0.000         0.000         0.000
  WSL2443                     46.697         0.000         0.000         0.000         0.000
  WSL2444                     43.886         0.000         0.000         0.000         0.000
  WSL2446                     45.174         0.000         0.000         0.000         0.000
  WSL2447                     48.317         0.000         0.000         0.000         0.000
  WSL2448                     50.004         0.000         0.000         0.000         0.000
  WSL2449                     53.032         0.000         0.000         0.000         0.000
  WSL2450                     56.612         0.000         0.000         0.000         0.000
  WSL2451                     60.180         0.000         0.000         0.000         0.000
  WSL2452                     64.417         0.000         0.000         0.000         0.000
  WSL2454                     68.105         0.000         0.000         0.000         0.000
  WSL2478                     70.473         0.000         0.000         0.000         0.000
  WSL2479                    227.115         0.000         0.000         0.000         0.000
  WSL2480                    792.984         0.000         0.000         0.000         0.000
  WSL2482                    864.281         0.000         0.000         0.000         0.000
  WSL2484                    793.933         0.000         0.000         0.000         0.000
  WSL2493                     54.894         0.000         0.000         0.000         0.000
  8                          971.082         0.000         0.000         0.000         0.000
  19                           0.000         0.000         0.000         0.000         0.000
  17                         605.940         0.000         0.000         0.000         0.000
  CC-Pump-1                  282.078         0.000         0.000         0.000         0.000
  CC-Pump-2                  282.078         0.000         0.000         0.000         0.000
  

  Analysis begun on:  Sun Aug 18 09:33:13 2019
  Analysis ended on:  Sun Aug 18 09:33:14 2019
  Total elapsed time: 00:00:01