
  EPA STORM WATER MANAGEMENT MODEL - VERSION 5.1 (Build 5.2.0.dev5)
  --------------------------------------------------------------

  
  *********************************************************
  NOTE: The summary statistics displayed in this report are
  based on results found at every computational time step,  
  not just on results from each reporting time step.
  *********************************************************
  
  ****************
  Analysis Options
  ****************
  Flow Units ............... MLD
  Process Models:
    Rainfall/Runoff ........ YES
    RDII ................... NO
    Snowmelt ............... NO
    Groundwater ............ NO
    Flow Routing ........... YES
    Ponding Allowed ........ NO
    Water Quality .......... YES
  Infiltration Method ...... GREEN_AMPT
  Flow Routing Method ...... DYNWAVE
  Surcharge Method ......... EXTRAN
  Starting Date ............ 08/28/2015 08:00:00
  Ending Date .............. 08/28/2015 11:50:00
  Antecedent Dry Days ...... 4.0
  Report Time Step ......... 00:01:00
  Wet Time Step ............ 00:01:00
  Dry Time Step ............ 00:01:00
  Routing Time Step ........ 5.00 sec
  Variable Time Step ....... YES
  Maximum Trials ........... 8
  Number of Threads ........ 1
  Head Tolerance ........... 0.001500 m
  
  
  **************************        Volume         Depth
  Runoff Quantity Continuity     hectare-m            mm
  **************************     ---------       -------
  Total Precipitation ......         1.096        17.723
  Evaporation Loss .........         0.000         0.000
  Infiltration Loss ........         0.468         7.573
  Surface Runoff ...........         0.229         3.697
  Final Storage ............         0.399         6.454
  Continuity Error (%) .....        -0.007
  
  
  **************************           COD         NH3-N            TN            TP            SS
  Runoff Quality Continuity             kg            kg            kg            kg            kg
  **************************    ----------    ----------    ----------    ----------    ----------
  Initial Buildup ..........      2504.640         0.000         0.000         0.000         0.000
  Surface Buildup ..........        19.924         0.000         0.000         0.000         0.000
  Wet Deposition ...........         0.000         0.000         0.000         0.000         0.000
  Sweeping Removal .........         0.000         0.000         0.000         0.000         0.000
  Infiltration Loss ........        79.725         0.000         0.000         0.000         0.000
  BMP Removal ..............         0.000         0.000         0.000         0.000         0.000
  Surface Runoff ...........       360.220         0.000         0.000         0.000         0.000
  Remaining Buildup ........      2082.840         0.000         0.000         0.000         0.000
  Continuity Error (%) .....         0.070         0.000         0.000         0.000         0.000
  
  
  **************************        Volume        Volume
  Flow Routing Continuity        hectare-m      10^6 ltr
  **************************     ---------     ---------
  Dry Weather Inflow .......         0.000         0.000
  Wet Weather Inflow .......         0.228         2.281
  Groundwater Inflow .......         0.000         0.000
  RDII Inflow ..............         0.000         0.000
  External Inflow ..........         0.082         0.822
  External Outflow .........         0.268         2.682
  Flooding Loss ............         0.013         0.134
  Evaporation Loss .........         0.000         0.000
  Exfiltration Loss ........         0.000         0.000
  Initial Stored Volume ....         0.000         0.000
  Final Stored Volume ......         0.046         0.465
  Continuity Error (%) .....        -5.728
  
  
  **************************           COD         NH3-N            TN            TP            SS
  Quality Routing Continuity            kg            kg            kg            kg            kg
  **************************    ----------    ----------    ----------    ----------    ----------
  Dry Weather Inflow .......         0.000         0.000         0.000         0.000         0.000
  Wet Weather Inflow .......       359.303         0.000         0.000         0.000         0.000
  Groundwater Inflow .......         0.000         0.000         0.000         0.000         0.000
  RDII Inflow ..............         0.000         0.000         0.000         0.000         0.000
  External Inflow ..........       137.264         0.000         0.000         0.000         0.000
  External Outflow .........       367.269         0.000         0.000         0.000         0.000
  Flooding Loss ............        29.212         0.000         0.000         0.000         0.000
  Exfiltration Loss ........         0.000         0.000         0.000         0.000         0.000
  Mass Reacted .............         0.000         0.000         0.000         0.000         0.000
  Initial Stored Mass ......         0.000         0.000         0.000         0.000         0.000
  Final Stored Mass ........        69.157         0.000         0.000         0.000         0.000
  Continuity Error (%) .....         6.229         0.000         0.000         0.000         0.000
  
  
  *************************
  Highest Continuity Errors
  *************************
  Node WS02006230 (5.97%)
  Node WS02006242 (4.01%)
  Node WS02006229 (3.63%)
  Node WS02006240 (3.58%)
  Node WS02006243 (3.48%)
  
  
  ***************************
  Time-Step Critical Elements
  ***************************
  Link 8 (82.17%)
  Link 17 (8.46%)
  Link WSL2448 (8.03%)
  
  
  ********************************
  Highest Flow Instability Indexes
  ********************************
  Link WSL2301 (4)
  Link WSL2297 (4)
  Link WSL2302 (3)
  Link WSL2296 (3)
  Link WSL2493 (3)
  
  
  *************************
  Routing Time Step Summary
  *************************
  Minimum Time Step           :     0.34 sec
  Average Time Step           :     0.95 sec
  Maximum Time Step           :     5.00 sec
  Percent in Steady State     :     0.00
  Average Iterations per Step :     2.23
  Percent Not Converging      :     2.62
  
  
  ***************************
  Subcatchment Runoff Summary
  ***************************
  
  ------------------------------------------------------------------------------------------------------------------------------
                            Total      Total      Total      Total     Imperv       Perv      Total       Total     Peak  Runoff
                           Precip      Runon       Evap      Infil     Runoff     Runoff     Runoff      Runoff   Runoff   Coeff
  Subcatchment                 mm         mm         mm         mm         mm         mm         mm    10^6 ltr      MLD
  ------------------------------------------------------------------------------------------------------------------------------
  1                         17.72      18.50       0.00       8.83       8.54       7.23      15.77        0.19     4.48   0.435
  2                         17.72       0.00       0.00       7.23       4.19       1.42       5.61        0.19     5.07   0.316
  3                         17.72       0.00       0.00       7.26       4.13       1.19       5.32        0.27     7.14   0.300
  35                        17.72       0.00       0.00       7.22       4.21       1.48       5.69        0.17     4.65   0.321
  36                        17.72      10.95       0.00       8.53       6.52       2.77       9.29        0.55    13.01   0.324
  40                        17.72       2.98       0.00       7.62       4.84       1.82       6.66        0.26     6.72   0.321
  41                        17.72       0.00       0.00       7.18       4.26       1.77       6.03        0.12     3.22   0.340
  42                        17.72       0.00       0.00       7.19       4.24       1.66       5.90        0.13     3.68   0.333
  43                        17.72       0.00       0.00       6.94       4.37       3.23       7.60        0.03     0.82   0.429
  44                        17.72     154.73       0.00      13.86      41.98      85.55     127.53        0.47    10.05   0.739
  45                        17.72       0.00       0.00       7.10       4.31       2.26       6.57        0.07     1.92   0.371
  46                        17.72       9.27       0.00       8.23       6.36       3.74      10.10        0.22     5.41   0.374
  47                        17.72       0.00       0.00       7.11       4.31       2.20       6.51        0.07     2.04   0.367
  48                        17.72       4.56       0.00       7.70       5.33       2.99       8.32        0.13     3.48   0.373
  55                        17.72       6.82       0.00       7.83       5.92       4.47      10.39        0.09     2.30   0.423
  56                        17.72      10.19       0.00       8.31       6.57       3.95      10.52        0.23     5.58   0.377
  57                        17.72       0.00       0.00       7.26       4.13       1.20       5.33        0.27     7.02   0.301
  59                        17.72       0.00       0.00       7.08       4.33       2.43       6.76        0.06     1.63   0.381
  60                        17.72      14.81       0.00       8.43       7.88       8.32      16.20        0.08     2.16   0.498
  61                        17.72       0.00       0.00       7.33       3.83       0.68       4.51        0.81    20.21   0.254
  64                        17.72       0.00       0.00       7.12       4.30       2.14       6.44        0.08     2.18   0.363
  
  
  ****************************
  Subcatchment Washoff Summary
  ****************************
  
  ------------------------------------------------------------------------------------------
                                 COD         NH3-N            TN            TP            SS
  Subcatchment                    kg            kg            kg            kg            kg
  ------------------------------------------------------------------------------------------
  1                           28.286         0.000         0.000         0.000         0.000
  2                            0.000         0.000         0.000         0.000         0.000
  3                            0.000         0.000         0.000         0.000         0.000
  35                          29.475         0.000         0.000         0.000         0.000
  36                         167.759         0.000         0.000         0.000         0.000
  40                          55.223         0.000         0.000         0.000         0.000
  41                          20.927         0.000         0.000         0.000         0.000
  42                          23.683         0.000         0.000         0.000         0.000
  43                           5.817         0.000         0.000         0.000         0.000
  44                         146.855         0.000         0.000         0.000         0.000
  45                          12.919         0.000         0.000         0.000         0.000
  46                          66.199         0.000         0.000         0.000         0.000
  47                          13.673         0.000         0.000         0.000         0.000
  48                          33.068         0.000         0.000         0.000         0.000
  55                          24.988         0.000         0.000         0.000         0.000
  56                          71.231         0.000         0.000         0.000         0.000
  57                          43.406         0.000         0.000         0.000         0.000
  59                          11.067         0.000         0.000         0.000         0.000
  60                          27.294         0.000         0.000         0.000         0.000
  61                         116.685         0.000         0.000         0.000         0.000
  64                          14.508         0.000         0.000         0.000         0.000
  ------------------------------------------------------------------------------------------
  System                     913.062         0.000         0.000         0.000         0.000
  
  
  ******************
  Node Depth Summary
  ******************
  
  ---------------------------------------------------------------------------------
                                 Average  Maximum  Maximum  Time of Max    Reported
                                   Depth    Depth      HGL   Occurrence   Max Depth
  Node                 Type       Meters   Meters   Meters  days hr:min      Meters
  ---------------------------------------------------------------------------------
  WS01000070           JUNCTION     0.00     0.00     0.00     0  00:00        0.00
  WS01000323           JUNCTION     0.00     0.00     0.00     0  00:00        0.00
  WS01000533           JUNCTION     0.00     0.00     6.86     0  00:00        0.00
  WS01005172           JUNCTION     0.00     0.00     0.00     0  00:00        0.00
  WS01005181           JUNCTION     0.00     0.00     0.00     0  00:00        0.00
  WS01009841           JUNCTION     0.00     0.00     0.00     0  00:00        0.00
  WS02000078           JUNCTION     0.00     0.00     0.00     0  00:00        0.00
  WS02000112           JUNCTION     0.00     0.00     0.00     0  00:00        0.00
  WS02000136           JUNCTION     0.00     0.00     0.00     0  00:00        0.00
  WS02004053           JUNCTION     0.00     0.00     0.00     0  00:00        0.00
  WS02004401           JUNCTION     2.17     2.33     8.33     0  03:23        2.33
  WS02005192           JUNCTION     0.45     0.69     8.56     0  02:38        0.68
  WS02005193           JUNCTION     0.50     0.75     8.57     0  02:38        0.73
  WS02005196           JUNCTION     0.47     0.71     8.56     0  03:19        0.70
  WS02006109           JUNCTION     1.57     1.79     8.41     0  01:42        1.76
  WS02006110           JUNCTION     1.59     1.81     8.41     0  01:42        1.81
  WS02006111           JUNCTION     1.60     1.82     8.40     0  01:42        1.82
  WS02006112           JUNCTION     2.05     2.26     8.38     0  01:42        2.26
  WS02006113           JUNCTION     1.60     1.83     8.42     0  01:42        1.82
  WS02006115           JUNCTION     2.07     2.25     8.35     0  02:38        2.24
  WS02006116           JUNCTION     2.13     2.31     8.35     0  03:27        2.30
  WS02006183           JUNCTION     0.00     0.00     0.00     0  00:00        0.00
  WS02006228           JUNCTION     1.55     1.77     8.42     0  01:42        1.73
  WS02006229           JUNCTION     1.51     1.74     8.43     0  01:42        1.69
  WS02006230           JUNCTION     1.45     1.69     8.44     0  01:42        1.65
  WS02006231           JUNCTION     1.31     1.55     8.45     0  01:42        1.48
  WS02006232           JUNCTION     1.19     1.47     8.50     0  01:42        1.35
  WS02006234           JUNCTION     1.07     1.38     8.54     0  01:42        1.22
  WS02006235           JUNCTION     1.06     1.39     8.56     0  01:42        1.22
  WS02006238           JUNCTION     1.05     1.38     8.56     0  01:42        1.20
  WS02006239           JUNCTION     1.02     1.30     8.51     0  01:42        1.17
  WS02006242           JUNCTION     0.94     1.46     8.76     0  01:41        1.09
  WS02006240           JUNCTION     0.95     1.25     8.54     0  01:42        1.10
  WS02006243           JUNCTION     0.83     1.29     8.71     0  01:42        0.97
  WS02006245           JUNCTION     0.77     1.14     8.63     0  01:42        0.90
  WS02006247           JUNCTION     0.75     1.06     8.57     0  01:41        0.88
  WS02006248           JUNCTION     0.68     0.81     8.40     0  03:20        0.81
  WS02006249           JUNCTION     0.68     1.09     8.69     0  01:42        0.83
  WS02006251           JUNCTION     0.63     1.05     8.72     0  02:37        0.84
  WS02006253           JUNCTION     0.52     0.75     8.55     0  03:20        0.75
  WS02618401           JUNCTION     0.00     0.00     0.00     0  00:00        0.00
  WSA1649              JUNCTION     0.00     0.00     0.00     0  00:00        0.00
  outfall-5            OUTFALL      0.12     0.21     7.87     0  03:20        0.21
  outfall-14           OUTFALL      0.10     0.13     7.79     0  03:23        0.13
  outfall-16           OUTFALL      0.00     0.00     8.39     0  00:00        0.00
  CC-storage           STORAGE      2.26     5.63     8.81     0  02:21        5.63
  
  
  *******************
  Node Inflow Summary
  *******************
  
  -------------------------------------------------------------------------------------------------
                                  Maximum  Maximum                  Lateral       Total        Flow
                                  Lateral    Total  Time of Max      Inflow      Inflow     Balance
                                   Inflow   Inflow   Occurrence      Volume      Volume       Error
  Node                 Type           MLD      MLD  days hr:min    10^6 ltr    10^6 ltr     Percent
  -------------------------------------------------------------------------------------------------
  WS01000070           JUNCTION      0.00     0.00     0  00:00           0           0       0.000 ltr
  WS01000323           JUNCTION      0.00     0.00     0  00:00           0           0       0.000 ltr
  WS01000533           JUNCTION      0.00     0.00     0  00:00           0           0       0.000 ltr
  WS01005172           JUNCTION      0.00     0.00     0  00:00           0           0       0.000 ltr
  WS01005181           JUNCTION      0.00     0.00     0  00:00           0           0       0.000 ltr
  WS01009841           JUNCTION      0.00     0.00     0  00:00           0           0       0.000 ltr
  WS02000078           JUNCTION      0.00     0.00     0  00:00           0           0       0.000 ltr
  WS02000112           JUNCTION      0.00     0.00     0  00:00           0           0       0.000 ltr
  WS02000136           JUNCTION      0.00     0.00     0  00:00           0           0       0.000 ltr
  WS02004053           JUNCTION      0.00     0.00     0  00:00           0           0       0.000 ltr
  WS02004401           JUNCTION      0.05    18.72     0  03:23      0.0086        1.11       2.642
  WS02005192           JUNCTION      7.11     8.48     0  01:46       0.283       0.289       0.936
  WS02005193           JUNCTION      0.09    14.66     0  01:43       0.014       0.321       2.445
  WS02005196           JUNCTION      0.12     9.87     0  01:44      0.0183       0.309       2.266
  WS02006109           JUNCTION      0.08    15.61     0  03:26      0.0129       0.872       2.824
  WS02006110           JUNCTION      0.08    15.68     0  03:26      0.0126       0.862       2.898
  WS02006111           JUNCTION      0.24    18.25     0  03:23      0.0352        1.15       1.807
  WS02006112           JUNCTION      0.18    18.40     0  03:23      0.0263        1.15       2.879
  WS02006113           JUNCTION      7.28    18.06     0  03:23       0.296        1.13       2.112
  WS02006115           JUNCTION      0.08    18.47     0  03:23      0.0129        1.14       3.366
  WS02006116           JUNCTION      0.24    18.67     0  03:23      0.0347        1.14       3.039
  WS02006183           JUNCTION      0.00     0.00     0  00:00           0           0       0.000 ltr
  WS02006228           JUNCTION     10.20    15.53     0  03:26       0.497        0.89       2.018
  WS02006229           JUNCTION      0.13    10.87     0  01:43      0.0193       0.424       3.767
  WS02006230           JUNCTION      0.07    13.00     0  01:42      0.0111       0.433       6.346
  WS02006231           JUNCTION      0.13    12.93     0  01:39      0.0197       0.439       3.404
  WS02006232           JUNCTION      5.15    16.61     0  01:39       0.202       0.533       2.864
  WS02006234           JUNCTION      0.14    20.23     0  01:39      0.0208       0.445       3.172
  WS02006235           JUNCTION      0.14    21.54     0  01:39      0.0215       0.442       1.740
  WS02006238           JUNCTION      0.15    23.59     0  01:40      0.0226       0.442       2.196
  WS02006239           JUNCTION      0.11    29.35     0  01:40      0.0167       0.443       2.859
  WS02006242           JUNCTION      0.08    35.03     0  01:41      0.0124       0.462       4.181
  WS02006240           JUNCTION      0.06    30.02     0  01:40     0.00952       0.449       3.717
  WS02006243           JUNCTION      0.17    34.26     0  01:41      0.0259       0.476       3.601
  WS02006245           JUNCTION      0.07    35.06     0  01:41      0.0109       0.473       2.764
  WS02006247           JUNCTION      4.61    35.43     0  01:41       0.214       0.601       1.879
  WS02006248           JUNCTION      0.12    39.97     0  03:20      0.0185        1.86       0.576
  WS02006249           JUNCTION      0.19    39.39     0  02:35      0.0275        1.58       0.920
  WS02006251           JUNCTION      2.36    39.23     0  02:35      0.0955        1.56       0.952
  WS02006253           JUNCTION      0.11    38.21     0  02:35      0.0166        1.49       0.517
  WS02618401           JUNCTION      0.00     0.00     0  00:00           0           0       0.000 ltr
  WSA1649              JUNCTION      0.00     0.00     0  00:00           0           0       0.000 ltr
  outfall-5            OUTFALL       0.00    40.02     0  03:20           0        1.61       0.000
  outfall-14           OUTFALL       0.00    18.72     0  03:23           0        1.07       0.000
  outfall-16           OUTFALL       0.00     0.00     0  00:00           0           0       0.000 ltr
  CC-storage           STORAGE      21.67    21.67     0  03:01        1.09        1.09     -16.017
  
  
  **********************
  Node Surcharge Summary
  **********************
  
  Surcharging occurs when water rises above the top of the highest conduit.
  ---------------------------------------------------------------------
                                               Max. Height   Min. Depth
                                   Hours       Above Crown    Below Rim
  Node                 Type      Surcharged         Meters       Meters
  ---------------------------------------------------------------------
  WS01000070           JUNCTION        3.83          0.000        0.000
  WS01000323           JUNCTION        3.83          0.000        0.000
  WS01000533           JUNCTION        3.83          0.000        2.147
  WS01005172           JUNCTION        3.83          0.000        0.000
  WS01005181           JUNCTION        3.83          0.000        0.000
  WS01009841           JUNCTION        3.83          0.000        0.000
  WS02000078           JUNCTION        3.83          0.000        0.000
  WS02000112           JUNCTION        3.83          0.000        0.000
  WS02000136           JUNCTION        3.83          0.000        0.000
  WS02004053           JUNCTION        3.83          0.000        0.000
  WS02005192           JUNCTION        0.29          0.093        2.726
  WS02005193           JUNCTION        0.44          0.151        2.466
  WS02005196           JUNCTION        0.35          0.105        2.601
  WS02006109           JUNCTION        2.19          0.989        0.849
  WS02006110           JUNCTION        2.19          1.011        0.834
  WS02006111           JUNCTION        2.19          1.022        0.855
  WS02006112           JUNCTION        2.41          1.259        0.424
  WS02006113           JUNCTION        2.19          1.026        0.907
  WS02006115           JUNCTION        2.44          1.245        1.054
  WS02006116           JUNCTION        2.52          1.307        1.043
  WS02006183           JUNCTION        3.83          0.000        0.000
  WS02006228           JUNCTION        2.19          0.971        1.260
  WS02006229           JUNCTION        2.19          0.939        1.515
  WS02006231           JUNCTION        2.17          0.851        0.692
  WS02006232           JUNCTION        2.16          0.767        0.722
  WS02006234           JUNCTION        2.16          0.680        0.577
  WS02006235           JUNCTION        2.16          0.688        0.606
  WS02006238           JUNCTION        2.16          0.675        0.759
  WS02006239           JUNCTION        2.15          0.597        0.732
  WS02006242           JUNCTION        2.15          0.760        0.089
  WS02006240           JUNCTION        2.15          0.552        0.851
  WS02006243           JUNCTION        2.14          0.595        0.185
  WS02006245           JUNCTION        2.14          0.444        0.411
  WS02006247           JUNCTION        2.13          0.361        0.399
  WS02006249           JUNCTION        1.47          0.388        0.000
  WS02006251           JUNCTION        0.56          0.346        1.164
  WS02006253           JUNCTION        0.25          0.055        2.399
  WS02618401           JUNCTION        3.83          0.000        0.000
  WSA1649              JUNCTION        3.83          0.000        0.000
  
  
  *********************
  Node Flooding Summary
  *********************
  
  Flooding refers to all water that overflows a node, whether it ponds or not.
  --------------------------------------------------------------------------
                                                             Total   Maximum
                                 Maximum   Time of Max       Flood    Ponded
                        Hours       Rate    Occurrence      Volume     Depth
  Node                 Flooded       MLD   days hr:min    10^6 ltr    Meters
  --------------------------------------------------------------------------
  WS02006249              0.01      9.52      0  01:42       0.000     0.000
  CC-storage              0.24     21.66      0  03:01       0.134     0.000
  
  
  **********************
  Storage Volume Summary
  **********************
  
  --------------------------------------------------------------------------------------------------
                         Average     Avg  Evap Exfil       Maximum     Max    Time of Max    Maximum
                          Volume    Pcnt  Pcnt  Pcnt        Volume    Pcnt     Occurrence    Outflow
  Storage Unit           1000 m3    Full  Loss  Loss       1000 m3    Full    days hr:min        MLD
  --------------------------------------------------------------------------------------------------
  CC-storage               0.064      40     0     0         0.159     100       0  02:21      34.56
  
  
  ***********************
  Outfall Loading Summary
  ***********************
  
  ---------------------------------------------------------------------------------------------------------------------------------
                         Flow       Avg       Max       Total         Total         Total         Total         Total         Total
                         Freq      Flow      Flow      Volume           COD         NH3-N            TN            TP            SS
  Outfall Node           Pcnt       MLD       MLD    10^6 ltr            kg            kg            kg            kg            kg
  ---------------------------------------------------------------------------------------------------------------------------------
  outfall-5             90.67     19.47     40.02       1.609       196.103         0.000         0.000         0.000         0.000
  outfall-14            90.72     12.70     18.72       1.073       171.181         0.000         0.000         0.000         0.000
  outfall-16             0.00      0.00      0.00       0.000         0.000         0.000         0.000         0.000         0.000
  ---------------------------------------------------------------------------------------------------------------------------------
  System                60.46     32.18     57.55       2.682       367.284         0.000         0.000         0.000         0.000
  
  
  ********************
  Link Flow Summary
  ********************
  
  -----------------------------------------------------------------------------
                                 Maximum  Time of Max   Maximum    Max/    Max/
                                  |Flow|   Occurrence   |Veloc|    Full    Full
  Link                 Type          MLD  days hr:min     m/sec    Flow   Depth
  -----------------------------------------------------------------------------
  WSL2038              CONDUIT      9.00     0  01:46      0.43    0.45    1.00
  WSL2039              CONDUIT     12.87     0  01:44      0.71    0.66    1.00
  WSL2041              CONDUIT     10.00     0  03:26      0.50    0.49    1.00
  WSL2294              CONDUIT     15.61     0  03:26      0.43    0.52    1.00
  WSL2295              CONDUIT     15.68     0  03:26      0.50    0.70    1.00
  WSL2296              CONDUIT     18.25     0  03:23      0.63    0.10    1.00
  WSL2297              CONDUIT     18.40     0  03:23      0.34    0.35    1.00
  WSL2298              CONDUIT     18.06     0  03:23      0.87    0.83    1.00
  WSL2301              CONDUIT     18.47     0  03:23      0.29    0.17    1.00
  WSL2302              CONDUIT     18.67     0  03:23      0.28    0.23    1.00
  WSL2441              CONDUIT     15.53     0  03:26      0.44    0.40    1.00
  WSL2442              CONDUIT     10.74     0  01:43      0.63    0.27    1.00
  WSL2443              CONDUIT     12.92     0  01:42      0.73    0.20    1.00
  WSL2444              CONDUIT     12.80     0  01:39      0.88    0.20    1.00
  WSL2446              CONDUIT     15.70     0  01:39      0.84    0.27    1.00
  WSL2447              CONDUIT     20.09     0  01:39      1.08    1.03    1.00
  WSL2448              CONDUIT     21.40     0  01:39      1.08    0.60    1.00
  WSL2449              CONDUIT     23.44     0  01:40      1.10    0.82    1.00
  WSL2450              CONDUIT     27.80     0  01:40      1.21    0.58    1.00
  WSL2451              CONDUIT     29.96     0  01:40      1.23    1.95    1.00
  WSL2452              CONDUIT     34.95     0  01:41      1.31    0.67    1.00
  WSL2454              CONDUIT     34.08     0  01:41      1.47    0.80    1.00
  WSL2478              CONDUIT     34.99     0  01:41      1.41    1.23    1.00
  WSL2479              CONDUIT     34.75     0  01:41      1.41    0.66    1.00
  WSL2480              CONDUIT     39.39     0  02:35      1.42    1.82    1.00
  WSL2482              CONDUIT     39.23     0  02:35      1.36    1.02    1.00
  WSL2484              CONDUIT     38.21     0  02:35      1.51    0.54    1.00
  WSL2493              CONDUIT     10.87     0  01:43      0.51    0.18    1.00
  8                    CONDUIT     40.02     0  03:20      7.08    0.53    0.52
  19                   CONDUIT      0.00     0  00:00      0.00    0.00    0.00
  17                   CONDUIT     18.72     0  03:23      5.85    0.24    0.34
  CC-Pump-1            PUMP        17.28     0  02:30              1.00
  CC-Pump-2            PUMP        17.28     0  02:30              1.00
  
  
  ***************************
  Flow Classification Summary
  ***************************
  
  -------------------------------------------------------------------------------------
                      Adjusted    ---------- Fraction of Time in Flow Class ---------- 
                       /Actual         Up    Down  Sub   Sup   Up    Down  Norm  Inlet 
  Conduit               Length    Dry  Dry   Dry   Crit  Crit  Crit  Crit  Ltd   Ctrl  
  -------------------------------------------------------------------------------------
  WSL2038                 1.00   0.00  0.00  0.00  1.00  0.00  0.00  0.00  0.01  0.00
  WSL2039                 1.00   0.00  0.00  0.00  1.00  0.00  0.00  0.00  0.00  0.00
  WSL2041                 1.00   0.00  0.00  0.00  1.00  0.00  0.00  0.00  0.32  0.00
  WSL2294                 1.00   0.00  0.00  0.00  1.00  0.00  0.00  0.00  0.00  0.00
  WSL2295                 1.00   0.00  0.00  0.00  1.00  0.00  0.00  0.00  0.00  0.00
  WSL2296                 1.00   0.00  0.00  0.00  1.00  0.00  0.00  0.00  0.17  0.00
  WSL2297                 1.00   0.00  0.00  0.00  1.00  0.00  0.00  0.00  0.00  0.00
  WSL2298                 1.00   0.00  0.00  0.00  0.98  0.02  0.00  0.00  0.00  0.00
  WSL2301                 1.00   0.00  0.00  0.00  1.00  0.00  0.00  0.00  0.04  0.00
  WSL2302                 1.00   0.00  0.00  0.00  1.00  0.00  0.00  0.00  0.01  0.00
  WSL2441                 1.00   0.00  0.00  0.00  1.00  0.00  0.00  0.00  0.00  0.00
  WSL2442                 1.00   0.00  0.00  0.00  1.00  0.00  0.00  0.00  0.17  0.00
  WSL2443                 1.00   0.00  0.00  0.00  1.00  0.00  0.00  0.00  0.31  0.00
  WSL2444                 1.00   0.00  0.00  0.00  0.94  0.06  0.00  0.00  0.24  0.00
  WSL2446                 1.00   0.00  0.00  0.00  0.93  0.07  0.00  0.00  0.03  0.00
  WSL2447                 1.00   0.00  0.00  0.00  1.00  0.00  0.00  0.00  0.00  0.00
  WSL2448                 1.00   0.00  0.00  0.00  1.00  0.00  0.00  0.00  0.00  0.00
  WSL2449                 1.00   0.00  0.00  0.00  1.00  0.00  0.00  0.00  0.02  0.00
  WSL2450                 1.00   0.00  0.00  0.00  1.00  0.00  0.00  0.00  0.41  0.00
  WSL2451                 1.00   0.00  0.00  0.00  1.00  0.00  0.00  0.00  0.00  0.00
  WSL2452                 1.00   0.00  0.00  0.00  1.00  0.00  0.00  0.00  0.39  0.00
  WSL2454                 1.00   0.00  0.00  0.00  1.00  0.00  0.00  0.00  0.01  0.00
  WSL2478                 1.00   0.00  0.00  0.00  1.00  0.00  0.00  0.00  0.00  0.00
  WSL2479                 1.00   0.00  0.00  0.00  1.00  0.00  0.00  0.00  0.40  0.00
  WSL2480                 1.00   0.00  0.00  0.00  1.00  0.00  0.00  0.00  0.00  0.00
  WSL2482                 1.00   0.00  0.00  0.00  1.00  0.00  0.00  0.00  0.39  0.00
  WSL2484                 1.00   0.00  0.00  0.00  1.00  0.00  0.00  0.00  0.38  0.00
  WSL2493                 1.00   0.00  0.00  0.00  1.00  0.00  0.00  0.00  0.05  0.00
  8                       1.00   0.09  0.00  0.00  0.00  0.91  0.00  0.00  0.12  0.00
  19                      1.00   1.00  0.00  0.00  0.00  0.00  0.00  0.00  0.00  0.00
  17                      1.00   0.09  0.00  0.00  0.00  0.91  0.00  0.00  0.03  0.00
  
  
  *************************
  Conduit Surcharge Summary
  *************************
  
  ----------------------------------------------------------------------------
                                                           Hours        Hours 
                         --------- Hours Full --------   Above Full   Capacity
  Conduit                Both Ends  Upstream  Dnstream   Normal Flow   Limited
  ----------------------------------------------------------------------------
  WSL2038                     0.29      0.29      0.35      0.01         0.01
  WSL2039                     0.44      0.44      0.48      0.01         0.01
  WSL2041                     0.35      0.35      0.44      0.01         0.01
  WSL2294                     2.19      2.19      2.19      0.01         0.01
  WSL2295                     2.19      2.19      2.19      0.01         0.03
  WSL2296                     2.19      2.19      2.74      0.01         0.01
  WSL2297                     2.41      2.41      2.44      0.01         0.01
  WSL2298                     2.19      2.19      2.19      0.01         0.04
  WSL2301                     2.44      2.44      2.52      0.01         0.01
  WSL2302                     2.52      2.52      2.59      0.01         0.01
  WSL2441                     2.19      2.19      2.19      0.01         0.01
  WSL2442                     2.19      2.19      2.20      0.01         0.01
  WSL2443                     2.17      2.17      2.19      0.01         0.01
  WSL2444                     2.16      2.16      2.17      0.01         0.01
  WSL2446                     2.16      2.16      2.16      0.01         0.01
  WSL2447                     2.16      2.16      2.16      0.01         0.01
  WSL2448                     2.15      2.15      2.16      0.01         0.01
  WSL2449                     2.15      2.15      2.15      0.01         0.01
  WSL2450                     2.15      2.15      2.15      0.01         0.01
  WSL2451                     2.15      2.15      2.15      0.06         0.01
  WSL2452                     2.14      2.14      2.15      0.01         0.01
  WSL2454                     2.14      2.14      2.14      0.01         0.01
  WSL2478                     2.13      2.13      2.14      0.04         0.01
  WSL2479                     1.54      1.54      2.13      0.01         0.01
  WSL2480                     1.46      1.47      1.54      0.63         0.58
  WSL2482                     0.56      0.56      1.47      0.13         0.14
  WSL2484                     0.25      0.25      0.56      0.01         0.01
  WSL2493                     2.19      2.19      2.19      0.01         0.01
  
  
  ***************
  Pumping Summary
  ***************
  
  ---------------------------------------------------------------------------------------------------------
                                                  Min       Avg       Max     Total     Power    % Time Off
                        Percent   Number of      Flow      Flow      Flow    Volume     Usage    Pump Curve
  Pump                 Utilized   Start-Ups       MLD       MLD       MLD  10^6 ltr     Kw-hr    Low   High
  ---------------------------------------------------------------------------------------------------------
  CC-Pump-1               39.10           3      0.00      9.59     17.28     0.580      5.40    0.0    0.0
  CC-Pump-2               39.10           3      0.00      9.59     17.28     0.580      5.40    0.0    0.0
  
  
  ***************************
  Link Pollutant Load Summary
  ***************************
  
  ------------------------------------------------------------------------------------------
                                 COD         NH3-N            TN            TP            SS
  Link                            kg            kg            kg            kg            kg
  ------------------------------------------------------------------------------------------
  WSL2038                     47.751         0.000         0.000         0.000         0.000
  WSL2039                     52.223         0.000         0.000         0.000         0.000
  WSL2041                     50.021         0.000         0.000         0.000         0.000
  WSL2294                    185.313         0.000         0.000         0.000         0.000
  WSL2295                    181.889         0.000         0.000         0.000         0.000
  WSL2296                    184.410         0.000         0.000         0.000         0.000
  WSL2297                    181.594         0.000         0.000         0.000         0.000
  WSL2298                    181.333         0.000         0.000         0.000         0.000
  WSL2301                    178.230         0.000         0.000         0.000         0.000
  WSL2302                    176.526         0.000         0.000         0.000         0.000
  WSL2441                    188.458         0.000         0.000         0.000         0.000
  WSL2442                     43.628         0.000         0.000         0.000         0.000
  WSL2443                     42.260         0.000         0.000         0.000         0.000
  WSL2444                     39.657         0.000         0.000         0.000         0.000
  WSL2446                     42.243         0.000         0.000         0.000         0.000
  WSL2447                     47.151         0.000         0.000         0.000         0.000
  WSL2448                     48.647         0.000         0.000         0.000         0.000
  WSL2449                     50.655         0.000         0.000         0.000         0.000
  WSL2450                     54.214         0.000         0.000         0.000         0.000
  WSL2451                     57.578         0.000         0.000         0.000         0.000
  WSL2452                     60.884         0.000         0.000         0.000         0.000
  WSL2454                     62.028         0.000         0.000         0.000         0.000
  WSL2478                     63.429         0.000         0.000         0.000         0.000
  WSL2479                     69.487         0.000         0.000         0.000         0.000
  WSL2480                    190.874         0.000         0.000         0.000         0.000
  WSL2482                    187.289         0.000         0.000         0.000         0.000
  WSL2484                    160.576         0.000         0.000         0.000         0.000
  WSL2493                     48.494         0.000         0.000         0.000         0.000
  8                          196.103         0.000         0.000         0.000         0.000
  19                           0.000         0.000         0.000         0.000         0.000
  17                         171.181         0.000         0.000         0.000         0.000
  CC-Pump-1                   53.206         0.000         0.000         0.000         0.000
  CC-Pump-2                   53.206         0.000         0.000         0.000         0.000
  

  Analysis begun on:  Sun Aug 18 09:33:39 2019
  Analysis ended on:  Sun Aug 18 09:33:39 2019
  Total elapsed time: < 1 sec