
  EPA STORM WATER MANAGEMENT MODEL - VERSION 5.1 (Build 5.3.0.dev0)
  --------------------------------------------------------------

  
  *********************************************************
  NOTE: The summary statistics displayed in this report are
  based on results found at every computational time step,  
  not just on results from each reporting time step.
  *********************************************************
  
  ****************
  Analysis Options
  ****************
  Flow Units ............... MLD
  Process Models:
    Rainfall/Runoff ........ YES
    RDII ................... NO
    Snowmelt ............... NO
    Groundwater ............ NO
    Flow Routing ........... YES
    Ponding Allowed ........ NO
    Water Quality .......... YES
  Infiltration Method ...... GREEN_AMPT
  Flow Routing Method ...... DYNWAVE
  Surcharge Method ......... EXTRAN
  Starting Date ............ 08/28/2015 08:00:00
  Ending Date .............. 08/28/2015 11:50:00
  Antecedent Dry Days ...... 4.0
  Report Time Step ......... 00:01:00
  Wet Time Step ............ 00:01:00
  Dry Time Step ............ 00:01:00
  Routing Time Step ........ 5.00 sec
  Variable Time Step ....... YES
  Maximum Trials ........... 8
  Number of Threads ........ 1
  Head Tolerance ........... 0.001500 m
  
  
  **************************        Volume         Depth
  Runoff Quantity Continuity     hectare-m            mm
  **************************     ---------       -------
  Total Precipitation ......         1.522        24.611
  Evaporation Loss .........         0.000         0.000
  Infiltration Loss ........         0.569         9.195
  Surface Runoff ...........         0.399         6.453
  Final Storage ............         0.554         8.964
  Continuity Error (%) .....        -0.004
  
  
  **************************           COD         NH3-N            TN            TP            SS
  Runoff Quality Continuity             kg            kg            kg            kg            kg
  **************************    ----------    ----------    ----------    ----------    ----------
  Initial Buildup ..........      2504.640         0.000         0.000         0.000         0.000
  Surface Buildup ..........        19.516         0.000         0.000         0.000         0.000
  Wet Deposition ...........         0.000         0.000         0.000         0.000         0.000
  Sweeping Removal .........         0.000         0.000         0.000         0.000         0.000
  Infiltration Loss ........       150.846         0.000         0.000         0.000         0.000
  BMP Removal ..............         0.000         0.000         0.000         0.000         0.000
  Surface Runoff ...........       791.992         0.000         0.000         0.000         0.000
  Remaining Buildup ........      1579.660         0.000         0.000         0.000         0.000
  Continuity Error (%) .....         0.066         0.000         0.000         0.000         0.000
  
  
  **************************        Volume        Volume
  Flow Routing Continuity        hectare-m      10^6 ltr
  **************************     ---------     ---------
  Dry Weather Inflow .......         0.000         0.000
  Wet Weather Inflow .......         0.398         3.983
  Groundwater Inflow .......         0.000         0.000
  RDII Inflow ..............         0.000         0.000
  External Inflow ..........         0.082         0.822
  External Outflow .........         0.271         2.713
  Flooding Loss ............         0.143         1.433
  Evaporation Loss .........         0.000         0.000
  Exfiltration Loss ........         0.000         0.000
  Initial Stored Volume ....         0.000         0.000
  Final Stored Volume ......         0.062         0.622
  Continuity Error (%) .....         0.781
  
  
  **************************           COD         NH3-N            TN            TP            SS
  Quality Routing Continuity            kg            kg            kg            kg            kg
  **************************    ----------    ----------    ----------    ----------    ----------
  Dry Weather Inflow .......         0.000         0.000         0.000         0.000         0.000
  Wet Weather Inflow .......       790.698         0.000         0.000         0.000         0.000
  Groundwater Inflow .......         0.000         0.000         0.000         0.000         0.000
  RDII Inflow ..............         0.000         0.000         0.000         0.000         0.000
  External Inflow ..........       137.264         0.000         0.000         0.000         0.000
  External Outflow .........       520.556         0.000         0.000         0.000         0.000
  Flooding Loss ............       284.490         0.000         0.000         0.000         0.000
  Exfiltration Loss ........         0.000         0.000         0.000         0.000         0.000
  Mass Reacted .............         0.000         0.000         0.000         0.000         0.000
  Initial Stored Mass ......         0.000         0.000         0.000         0.000         0.000
  Final Stored Mass ........       115.269         0.000         0.000         0.000         0.000
  Continuity Error (%) .....         0.824         0.000         0.000         0.000         0.000
  
  
  *************************
  Highest Continuity Errors
  *************************
  Node WS02006230 (6.79%)
  Node WS02006229 (4.33%)
  Node WS02006231 (3.89%)
  Node WS02006115 (2.89%)
  Node WS02006242 (2.69%)
  
  
  ***************************
  Time-Step Critical Elements
  ***************************
  Link 8 (88.51%)
  Link WSL2448 (9.42%)
  
  
  ********************************
  Highest Flow Instability Indexes
  ********************************
  Link WSL2302 (3)
  Link WSL2301 (2)
  Link WSL2297 (2)
  Link WSL2296 (2)
  Link WSL2298 (1)
  
  
  *************************
  Routing Time Step Summary
  *************************
  Minimum Time Step           :     0.50 sec
  Average Time Step           :     0.98 sec
  Maximum Time Step           :     5.00 sec
  Percent in Steady State     :    -0.00
  Average Iterations per Step :     2.06
  Percent Not Converging      :     0.34
  
  
  ***************************
  Subcatchment Runoff Summary
  ***************************
  
  ------------------------------------------------------------------------------------------------------------------------------
                            Total      Total      Total      Total     Imperv       Perv      Total       Total     Peak  Runoff
                           Precip      Runon       Evap      Infil     Runoff     Runoff     Runoff      Runoff   Runoff   Coeff
  Subcatchment                 mm         mm         mm         mm         mm         mm         mm    10^6 ltr      MLD
  ------------------------------------------------------------------------------------------------------------------------------
  1                         24.61      34.45       0.00      11.00      14.11      17.53      31.64        0.38     5.91   0.536
  2                         24.61       0.00       0.00       8.68       5.94       3.38       9.32        0.31     5.56   0.379
  3                         24.61       0.00       0.00       8.75       5.89       2.88       8.77        0.45     7.92   0.356
  35                        24.61       0.00       0.00       8.66       5.95       3.52       9.47        0.29     5.08   0.385
  36                        24.61      19.16       0.00      10.67      10.20       7.00      17.20        1.02    15.13   0.393
  40                        24.61       5.01       0.00       9.27       7.07       4.38      11.45        0.45     7.44   0.387
  41                        24.61       0.00       0.00       8.56       6.00       4.12      10.12        0.20     3.48   0.411
  42                        24.61       0.00       0.00       8.59       5.99       3.90       9.88        0.23     3.99   0.402
  43                        24.61       0.00       0.00       8.05       6.10       6.78      12.88        0.05     0.85   0.523
  44                        24.61     285.41       0.00      17.13      76.01     176.79     252.80        0.94    15.29   0.815
  45                        24.61       0.00       0.00       8.39       6.05       5.07      11.12        0.11     2.04   0.452
  46                        24.61      16.18       0.00      10.11       9.75       8.94      18.69        0.40     6.02   0.458
  47                        24.61       0.00       0.00       8.41       6.04       4.96      11.00        0.12     2.17   0.447
  48                        24.61       7.71       0.00       9.28       7.82       6.91      14.73        0.23     3.76   0.456
  55                        24.61      11.57       0.00       9.38       8.81       9.95      18.76        0.16     2.47   0.518
  56                        24.61      17.72       0.00      10.23      10.12       9.46      19.57        0.42     6.25   0.462
  57                        24.61       0.00       0.00       8.75       5.89       2.91       8.79        0.44     7.79   0.357
  59                        24.61       0.00       0.00       8.33       6.06       5.40      11.46        0.10     1.72   0.466
  60                        24.61      25.03       0.00      10.11      12.11      17.71      29.82        0.16     2.44   0.601
  61                        24.61       0.00       0.00       8.93       5.61       1.71       7.32        1.32    23.11   0.297
  64                        24.61       0.00       0.00       8.43       6.04       4.84      10.87        0.13     2.32   0.442
  
  
  ****************************
  Subcatchment Washoff Summary
  ****************************
  
  ------------------------------------------------------------------------------------------
                                 COD         NH3-N            TN            TP            SS
  Subcatchment                    kg            kg            kg            kg            kg
  ------------------------------------------------------------------------------------------
  1                           73.132         0.000         0.000         0.000         0.000
  2                            0.000         0.000         0.000         0.000         0.000
  3                            0.000         0.000         0.000         0.000         0.000
  35                          62.815         0.000         0.000         0.000         0.000
  36                         347.108         0.000         0.000         0.000         0.000
  40                         119.340         0.000         0.000         0.000         0.000
  41                          44.055         0.000         0.000         0.000         0.000
  42                          50.103         0.000         0.000         0.000         0.000
  43                          11.128         0.000         0.000         0.000         0.000
  44                         323.163         0.000         0.000         0.000         0.000
  45                          26.503         0.000         0.000         0.000         0.000
  46                         129.626         0.000         0.000         0.000         0.000
  47                          28.155         0.000         0.000         0.000         0.000
  48                          67.054         0.000         0.000         0.000         0.000
  55                          45.876         0.000         0.000         0.000         0.000
  56                         132.943         0.000         0.000         0.000         0.000
  57                          93.426         0.000         0.000         0.000         0.000
  59                          22.460         0.000         0.000         0.000         0.000
  60                          43.145         0.000         0.000         0.000         0.000
  61                         256.396         0.000         0.000         0.000         0.000
  64                          29.982         0.000         0.000         0.000         0.000
  ------------------------------------------------------------------------------------------
  System                    1906.407         0.000         0.000         0.000         0.000
  
  
  ******************
  Node Depth Summary
  ******************
  
  ---------------------------------------------------------------------------------
                                 Average  Maximum  Maximum  Time of Max    Reported
                                   Depth    Depth      HGL   Occurrence   Max Depth
  Node                 Type       Meters   Meters   Meters  days hr:min      Meters
  ---------------------------------------------------------------------------------
  WS01000070           JUNCTION     0.00     0.00     0.00     0  00:00        0.00
  WS01000323           JUNCTION     0.00     0.00     0.00     0  00:00        0.00
  WS01000533           JUNCTION     0.00     0.00     6.86     0  00:00        0.00
  WS01005172           JUNCTION     0.00     0.00     0.00     0  00:00        0.00
  WS01005181           JUNCTION     0.00     0.00     0.00     0  00:00        0.00
  WS01009841           JUNCTION     0.00     0.00     0.00     0  00:00        0.00
  WS02000078           JUNCTION     0.00     0.00     0.00     0  00:00        0.00
  WS02000112           JUNCTION     0.00     0.00     0.00     0  00:00        0.00
  WS02000136           JUNCTION     0.00     0.00     0.00     0  00:00        0.00
  WS02004053           JUNCTION     0.00     0.00     0.00     0  00:00        0.00
  WS02004401           JUNCTION     2.17     2.34     8.34     0  02:35        2.34
  WS02005192           JUNCTION     0.42     0.51     8.38     0  01:55        0.49
  WS02005193           JUNCTION     0.46     0.54     8.36     0  01:55        0.53
  WS02005196           JUNCTION     0.44     0.52     8.37     0  01:55        0.51
  WS02006109           JUNCTION     1.58     1.75     8.37     0  02:34        1.75
  WS02006110           JUNCTION     1.60     1.76     8.36     0  02:34        1.76
  WS02006111           JUNCTION     1.61     1.77     8.35     0  02:34        1.77
  WS02006112           JUNCTION     2.05     2.23     8.35     0  02:34        2.23
  WS02006113           JUNCTION     1.60     1.77     8.36     0  02:34        1.77
  WS02006115           JUNCTION     2.07     2.24     8.34     0  02:34        2.24
  WS02006116           JUNCTION     2.13     2.30     8.34     0  02:34        2.30
  WS02006183           JUNCTION     0.00     0.00     0.00     0  00:00        0.00
  WS02006228           JUNCTION     1.55     1.72     8.37     0  02:37        1.72
  WS02006229           JUNCTION     1.51     1.68     8.37     0  02:37        1.68
  WS02006230           JUNCTION     1.45     1.62     8.37     0  02:36        1.62
  WS02006231           JUNCTION     1.31     1.47     8.37     0  02:36        1.47
  WS02006232           JUNCTION     1.19     1.34     8.37     0  02:36        1.34
  WS02006234           JUNCTION     1.07     1.21     8.37     0  02:36        1.21
  WS02006235           JUNCTION     1.06     1.20     8.37     0  02:36        1.20
  WS02006238           JUNCTION     1.05     1.19     8.37     0  02:36        1.19
  WS02006239           JUNCTION     1.02     1.15     8.36     0  02:36        1.15
  WS02006242           JUNCTION     0.94     1.06     8.36     0  02:35        1.06
  WS02006240           JUNCTION     0.95     1.07     8.36     0  02:35        1.07
  WS02006243           JUNCTION     0.82     0.94     8.36     0  02:34        0.94
  WS02006245           JUNCTION     0.76     0.86     8.35     0  02:34        0.86
  WS02006247           JUNCTION     0.74     0.84     8.35     0  02:34        0.84
  WS02006248           JUNCTION     0.66     0.76     8.35     0  02:32        0.76
  WS02006249           JUNCTION     0.66     0.75     8.35     0  02:31        0.75
  WS02006251           JUNCTION     0.59     0.68     8.35     0  02:29        0.68
  WS02006253           JUNCTION     0.48     0.55     8.35     0  02:29        0.55
  WS02618401           JUNCTION     0.00     0.00     0.00     0  00:00        0.00
  WSA1649              JUNCTION     0.00     0.00     0.00     0  00:00        0.00
  outfall-5            OUTFALL      0.12     0.15     7.82     0  02:32        0.15
  outfall-14           OUTFALL      0.11     0.14     7.80     0  02:35        0.14
  outfall-16           OUTFALL      0.00     0.00     8.39     0  00:00        0.00
  CC-storage           STORAGE      5.35     5.63     8.81     0  01:33        5.63
  
  
  *******************
  Node Inflow Summary
  *******************
  
  -------------------------------------------------------------------------------------------------
                                  Maximum  Maximum                  Lateral       Total        Flow
                                  Lateral    Total  Time of Max      Inflow      Inflow     Balance
                                   Inflow   Inflow   Occurrence      Volume      Volume       Error
  Node                 Type           MLD      MLD  days hr:min    10^6 ltr    10^6 ltr     Percent
  -------------------------------------------------------------------------------------------------
  WS01000070           JUNCTION      0.00     0.00     0  00:00           0           0       0.000 ltr
  WS01000323           JUNCTION      0.00     0.00     0  00:00           0           0       0.000 ltr
  WS01000533           JUNCTION      0.00     0.00     0  00:00           0           0       0.000 ltr
  WS01005172           JUNCTION      0.00     0.00     0  00:00           0           0       0.000 ltr
  WS01005181           JUNCTION      0.00     0.00     0  00:00           0           0       0.000 ltr
  WS01009841           JUNCTION      0.00     0.00     0  00:00           0           0       0.000 ltr
  WS02000078           JUNCTION      0.00     0.00     0  00:00           0           0       0.000 ltr
  WS02000112           JUNCTION      0.00     0.00     0  00:00           0           0       0.000 ltr
  WS02000136           JUNCTION      0.00     0.00     0  00:00           0           0       0.000 ltr
  WS02004053           JUNCTION      0.00     0.00     0  00:00           0           0       0.000 ltr
  WS02004401           JUNCTION      0.05    20.22     0  02:35      0.0086        1.26       2.293
  WS02005192           JUNCTION      7.89     7.89     0  02:22       0.456       0.456       0.553
  WS02005193           JUNCTION      0.09     8.07     0  02:22       0.014       0.483       1.504
  WS02005196           JUNCTION      0.12     8.00     0  02:22      0.0183       0.472       1.402
  WS02006109           JUNCTION      0.08    12.66     0  03:00      0.0129       0.927       2.666
  WS02006110           JUNCTION      0.08    12.73     0  03:00      0.0126       0.917       2.734
  WS02006111           JUNCTION      0.24    19.72     0  02:35      0.0352        1.31       1.602
  WS02006112           JUNCTION      0.18    19.88     0  02:35      0.0263        1.31       2.538
  WS02006113           JUNCTION      8.07    19.51     0  02:35       0.472        1.33       1.808
  WS02006115           JUNCTION      0.08    19.96     0  02:35      0.0129        1.29       2.972
  WS02006116           JUNCTION      0.24    20.16     0  02:35      0.0347         1.3       2.723
  WS02006183           JUNCTION      0.00     0.00     0  00:00           0           0       0.000 ltr
  WS02006228           JUNCTION     15.45    15.45     0  03:00        0.96        1.12       1.627
  WS02006229           JUNCTION      0.13     6.65     0  01:52      0.0193       0.365       4.522
  WS02006230           JUNCTION      0.07     6.57     0  01:52      0.0111       0.376       7.288
  WS02006231           JUNCTION      0.13     6.13     0  01:46      0.0197       0.383       4.043
  WS02006232           JUNCTION      5.64     8.07     0  01:46       0.327       0.687       2.280
  WS02006234           JUNCTION      0.14     8.20     0  01:45      0.0208       0.677       2.081
  WS02006235           JUNCTION      0.14     8.15     0  01:53      0.0215       0.674       1.168
  WS02006238           JUNCTION      0.15     8.03     0  01:53      0.0226       0.676       1.486
  WS02006239           JUNCTION      0.11     8.17     0  01:53      0.0167       0.676       2.298
  WS02006242           JUNCTION      0.08     8.29     0  01:53      0.0124       0.679       2.763
  WS02006240           JUNCTION      0.06     8.21     0  01:53     0.00952       0.674       2.494
  WS02006243           JUNCTION      0.17     8.43     0  01:53      0.0259       0.689       2.557
  WS02006245           JUNCTION      0.07     8.47     0  01:53      0.0109       0.679       1.975
  WS02006247           JUNCTION      6.05    14.25     0  02:58       0.406        1.05       1.090
  WS02006248           JUNCTION      0.12    24.08     0  02:32      0.0185        1.61       0.664
  WS02006249           JUNCTION      0.19    10.82     0  02:23      0.0275        0.69       2.134
  WS02006251           JUNCTION      2.53    10.67     0  02:23       0.165       0.665       2.201
  WS02006253           JUNCTION      0.11     8.17     0  02:22      0.0166       0.499       1.476
  WS02618401           JUNCTION      0.00     0.00     0  00:00           0           0       0.000 ltr
  WSA1649              JUNCTION      0.00     0.00     0  00:00           0           0       0.000 ltr
  outfall-5            OUTFALL       0.00    24.08     0  02:32           0        1.48       0.000
  outfall-14           OUTFALL       0.00    20.22     0  02:35           0        1.23       0.000
  outfall-16           OUTFALL       0.00     0.00     0  00:00           0           0       0.000 ltr
  CC-storage           STORAGE      24.73    24.73     0  02:25        1.59        1.59      -0.001
  
  
  **********************
  Node Surcharge Summary
  **********************
  
  Surcharging occurs when water rises above the top of the highest conduit.
  ---------------------------------------------------------------------
                                               Max. Height   Min. Depth
                                   Hours       Above Crown    Below Rim
  Node                 Type      Surcharged         Meters       Meters
  ---------------------------------------------------------------------
  WS01000070           JUNCTION        3.83          0.000        0.000
  WS01000323           JUNCTION        3.83          0.000        0.000
  WS01000533           JUNCTION        3.83          0.000        2.147
  WS01005172           JUNCTION        3.83          0.000        0.000
  WS01005181           JUNCTION        3.83          0.000        0.000
  WS01009841           JUNCTION        3.83          0.000        0.000
  WS02000078           JUNCTION        3.83          0.000        0.000
  WS02000112           JUNCTION        3.83          0.000        0.000
  WS02000136           JUNCTION        3.83          0.000        0.000
  WS02004053           JUNCTION        3.83          0.000        0.000
  WS02006109           JUNCTION        2.24          0.948        0.890
  WS02006110           JUNCTION        2.25          0.964        0.881
  WS02006111           JUNCTION        2.27          0.973        0.904
  WS02006112           JUNCTION        2.45          1.227        0.456
  WS02006113           JUNCTION        2.26          0.971        0.962
  WS02006115           JUNCTION        2.47          1.245        1.054
  WS02006116           JUNCTION        2.55          1.302        1.048
  WS02006183           JUNCTION        3.83          0.000        0.000
  WS02006228           JUNCTION        2.24          0.921        1.310
  WS02006229           JUNCTION        2.22          0.881        1.573
  WS02006231           JUNCTION        2.16          0.770        0.773
  WS02006232           JUNCTION        2.11          0.640        0.849
  WS02006234           JUNCTION        2.05          0.507        0.750
  WS02006235           JUNCTION        2.05          0.496        0.798
  WS02006238           JUNCTION        2.05          0.485        0.949
  WS02006239           JUNCTION        2.04          0.453        0.876
  WS02006242           JUNCTION        2.00          0.358        0.491
  WS02006240           JUNCTION        2.00          0.371        1.032
  WS02006243           JUNCTION        1.97          0.235        0.545
  WS02006245           JUNCTION        1.95          0.162        0.693
  WS02006247           JUNCTION        1.94          0.141        0.619
  WS02006249           JUNCTION        1.72          0.047        0.341
  WS02618401           JUNCTION        3.83          0.000        0.000
  WSA1649              JUNCTION        3.83          0.000        0.000
  
  
  *********************
  Node Flooding Summary
  *********************
  
  Flooding refers to all water that overflows a node, whether it ponds or not.
  --------------------------------------------------------------------------
                                                             Total   Maximum
                                 Maximum   Time of Max       Flood    Ponded
                        Hours       Rate    Occurrence      Volume     Depth
  Node                 Flooded       MLD   days hr:min    10^6 ltr    Meters
  --------------------------------------------------------------------------
  CC-storage              2.28     24.73      0  02:25       1.433     0.000
  
  
  **********************
  Storage Volume Summary
  **********************
  
  --------------------------------------------------------------------------------------------------
                         Average     Avg  Evap Exfil       Maximum     Max    Time of Max    Maximum
                          Volume    Pcnt  Pcnt  Pcnt        Volume    Pcnt     Occurrence    Outflow
  Storage Unit           1000 m3    Full  Loss  Loss       1000 m3    Full    days hr:min        MLD
  --------------------------------------------------------------------------------------------------
  CC-storage               0.151      95     0     0         0.159     100       0  01:33       0.00
  
  
  ***********************
  Outfall Loading Summary
  ***********************
  
  ---------------------------------------------------------------------------------------------------------------------------------
                         Flow       Avg       Max       Total         Total         Total         Total         Total         Total
                         Freq      Flow      Flow      Volume           COD         NH3-N            TN            TP            SS
  Outfall Node           Pcnt       MLD       MLD    10^6 ltr            kg            kg            kg            kg            kg
  ---------------------------------------------------------------------------------------------------------------------------------
  outfall-5             88.69     18.77     24.08       1.485       275.151         0.000         0.000         0.000         0.000
  outfall-14            88.72     15.54     20.22       1.228       245.422         0.000         0.000         0.000         0.000
  outfall-16             0.00      0.00      0.00       0.000         0.000         0.000         0.000         0.000         0.000
  ---------------------------------------------------------------------------------------------------------------------------------
  System                59.14     34.32     44.28       2.713       520.573         0.000         0.000         0.000         0.000
  
  
  ********************
  Link Flow Summary
  ********************
  
  -----------------------------------------------------------------------------
                                 Maximum  Time of Max   Maximum    Max/    Max/
                                  |Flow|   Occurrence   |Veloc|    Full    Full
  Link                 Type          MLD  days hr:min     m/sec    Flow   Depth
  -----------------------------------------------------------------------------
  WSL2038              CONDUIT      7.89     0  02:22      0.61    0.39    0.85
  WSL2039              CONDUIT      8.07     0  02:22      0.91    0.41    0.91
  WSL2041              CONDUIT      7.99     0  02:22      0.68    0.39    0.88
  WSL2294              CONDUIT     12.65     0  03:00      0.43    0.43    1.00
  WSL2295              CONDUIT     12.72     0  03:00      0.50    0.57    1.00
  WSL2296              CONDUIT     19.72     0  02:35      0.63    0.11    1.00
  WSL2297              CONDUIT     19.88     0  02:35      0.34    0.38    1.00
  WSL2298              CONDUIT     19.51     0  02:35      0.87    0.90    1.00
  WSL2301              CONDUIT     19.96     0  02:35      0.29    0.18    1.00
  WSL2302              CONDUIT     20.16     0  02:35      0.30    0.25    1.00
  WSL2441              CONDUIT     12.58     0  03:00      0.44    0.32    1.00
  WSL2442              CONDUIT      6.50     0  01:52      0.63    0.17    1.00
  WSL2443              CONDUIT      6.00     0  01:46      0.73    0.09    1.00
  WSL2444              CONDUIT      6.14     0  01:46      0.91    0.10    1.00
  WSL2446              CONDUIT      8.06     0  01:45      0.87    0.14    1.00
  WSL2447              CONDUIT      8.00     0  01:53      0.78    0.41    1.00
  WSL2448              CONDUIT      7.88     0  01:53      0.64    0.22    1.00
  WSL2449              CONDUIT      8.06     0  01:53      0.62    0.28    1.00
  WSL2450              CONDUIT      8.15     0  01:53      0.71    0.17    1.00
  WSL2451              CONDUIT      8.21     0  01:53      0.69    0.54    1.00
  WSL2452              CONDUIT      8.25     0  01:53      0.73    0.16    1.00
  WSL2454              CONDUIT      8.40     0  01:53      0.88    0.20    1.00
  WSL2478              CONDUIT      8.71     0  01:53      0.77    0.31    1.00
  WSL2479              CONDUIT     14.25     0  02:58      0.67    0.27    1.00
  WSL2480              CONDUIT     10.82     0  02:23      0.75    0.50    1.00
  WSL2482              CONDUIT     10.66     0  02:23      0.67    0.28    0.99
  WSL2484              CONDUIT      8.16     0  02:22      0.76    0.11    0.88
  WSL2493              CONDUIT      6.52     0  01:52      0.51    0.11    1.00
  8                    CONDUIT     24.08     0  02:32      6.19    0.32    0.39
  19                   CONDUIT      0.00     0  00:00      0.00    0.00    0.00
  17                   CONDUIT     20.22     0  02:35      5.97    0.26    0.35
  CC-Pump-1            PUMP         0.00     0  00:00              0.00
  CC-Pump-2            PUMP         0.00     0  00:00              0.00
  
  
  ***************************
  Flow Classification Summary
  ***************************
  
  -------------------------------------------------------------------------------------
                      Adjusted    ---------- Fraction of Time in Flow Class ---------- 
                       /Actual         Up    Down  Sub   Sup   Up    Down  Norm  Inlet 
  Conduit               Length    Dry  Dry   Dry   Crit  Crit  Crit  Crit  Ltd   Ctrl  
  -------------------------------------------------------------------------------------
  WSL2038                 1.00   0.00  0.00  0.00  1.00  0.00  0.00  0.00  0.01  0.00
  WSL2039                 1.00   0.00  0.00  0.00  0.99  0.01  0.00  0.00  0.00  0.00
  WSL2041                 1.00   0.00  0.00  0.00  1.00  0.00  0.00  0.00  0.30  0.00
  WSL2294                 1.00   0.00  0.00  0.00  1.00  0.00  0.00  0.00  0.00  0.00
  WSL2295                 1.00   0.00  0.00  0.00  1.00  0.00  0.00  0.00  0.00  0.00
  WSL2296                 1.00   0.00  0.00  0.00  1.00  0.00  0.00  0.00  0.17  0.00
  WSL2297                 1.00   0.00  0.00  0.00  1.00  0.00  0.00  0.00  0.00  0.00
  WSL2298                 1.00   0.00  0.00  0.00  0.98  0.02  0.00  0.00  0.00  0.00
  WSL2301                 1.00   0.00  0.00  0.00  1.00  0.00  0.00  0.00  0.04  0.00
  WSL2302                 1.00   0.00  0.00  0.00  1.00  0.00  0.00  0.00  0.01  0.00
  WSL2441                 1.00   0.00  0.00  0.00  1.00  0.00  0.00  0.00  0.00  0.00
  WSL2442                 1.00   0.00  0.00  0.00  1.00  0.00  0.00  0.00  0.17  0.00
  WSL2443                 1.00   0.00  0.00  0.00  1.00  0.00  0.00  0.00  0.31  0.00
  WSL2444                 1.00   0.00  0.00  0.00  0.94  0.06  0.00  0.00  0.23  0.00
  WSL2446                 1.00   0.00  0.00  0.00  0.94  0.06  0.00  0.00  0.02  0.00
  WSL2447                 1.00   0.00  0.00  0.00  1.00  0.00  0.00  0.00  0.00  0.00
  WSL2448                 1.00   0.00  0.00  0.00  1.00  0.00  0.00  0.00  0.00  0.00
  WSL2449                 1.00   0.00  0.00  0.00  1.00  0.00  0.00  0.00  0.03  0.00
  WSL2450                 1.00   0.00  0.00  0.00  1.00  0.00  0.00  0.00  0.42  0.00
  WSL2451                 1.00   0.00  0.00  0.00  1.00  0.00  0.00  0.00  0.00  0.00
  WSL2452                 1.00   0.00  0.00  0.00  1.00  0.00  0.00  0.00  0.42  0.00
  WSL2454                 1.00   0.00  0.00  0.00  1.00  0.00  0.00  0.00  0.02  0.00
  WSL2478                 1.00   0.00  0.00  0.00  1.00  0.00  0.00  0.00  0.00  0.00
  WSL2479                 1.00   0.00  0.00  0.00  1.00  0.00  0.00  0.00  0.45  0.00
  WSL2480                 1.00   0.00  0.00  0.00  1.00  0.00  0.00  0.00  0.00  0.00
  WSL2482                 1.00   0.00  0.00  0.00  1.00  0.00  0.00  0.00  0.44  0.00
  WSL2484                 1.00   0.00  0.00  0.00  1.00  0.00  0.00  0.00  0.46  0.00
  WSL2493                 1.00   0.00  0.00  0.00  1.00  0.00  0.00  0.00  0.05  0.00
  8                       1.00   0.11  0.00  0.00  0.00  0.89  0.00  0.00  0.01  0.00
  19                      1.00   1.00  0.00  0.00  0.00  0.00  0.00  0.00  0.00  0.00
  17                      1.00   0.11  0.00  0.00  0.00  0.89  0.00  0.00  0.00  0.00
  
  
  *************************
  Conduit Surcharge Summary
  *************************
  
  ----------------------------------------------------------------------------
                                                           Hours        Hours 
                         --------- Hours Full --------   Above Full   Capacity
  Conduit                Both Ends  Upstream  Dnstream   Normal Flow   Limited
  ----------------------------------------------------------------------------
  WSL2294                     2.24      2.24      2.25      0.01         0.01
  WSL2295                     2.25      2.25      2.26      0.01         0.01
  WSL2296                     2.27      2.27      2.74      0.01         0.01
  WSL2297                     2.45      2.45      2.47      0.01         0.01
  WSL2298                     2.26      2.26      2.27      0.01         0.01
  WSL2301                     2.47      2.47      2.55      0.01         0.01
  WSL2302                     2.55      2.55      2.60      0.01         0.01
  WSL2441                     2.24      2.24      2.24      0.01         0.01
  WSL2442                     2.23      2.23      2.26      0.01         0.01
  WSL2443                     2.16      2.16      2.23      0.01         0.01
  WSL2444                     2.11      2.11      2.16      0.01         0.01
  WSL2446                     2.05      2.05      2.11      0.01         0.01
  WSL2447                     2.05      2.05      2.05      0.01         0.01
  WSL2448                     2.05      2.05      2.05      0.01         0.01
  WSL2449                     2.04      2.04      2.05      0.01         0.01
  WSL2450                     2.00      2.00      2.04      0.01         0.01
  WSL2451                     2.00      2.00      2.00      0.01         0.01
  WSL2452                     1.97      1.97      2.00      0.01         0.01
  WSL2454                     1.95      1.95      1.97      0.01         0.01
  WSL2478                     1.94      1.94      1.95      0.01         0.01
  WSL2479                     1.91      1.91      1.94      0.01         0.01
  WSL2480                     1.72      1.72      1.91      0.01         0.01
  WSL2482                     0.01      0.01      1.72      0.01         0.01
  WSL2493                     2.22      2.22      2.24      0.01         0.01
  
  
  ***************
  Pumping Summary
  ***************
  
  ---------------------------------------------------------------------------------------------------------
                                                  Min       Avg       Max     Total     Power    % Time Off
                        Percent   Number of      Flow      Flow      Flow    Volume     Usage    Pump Curve
  Pump                 Utilized   Start-Ups       MLD       MLD       MLD  10^6 ltr     Kw-hr    Low   High
  ---------------------------------------------------------------------------------------------------------
  CC-Pump-1                0.00           0      0.00      0.00      0.00     0.000      0.00    0.0    0.0
  CC-Pump-2                0.00           0      0.00      0.00      0.00     0.000      0.00    0.0    0.0
  
  
  ***************************
  Link Pollutant Load Summary
  ***************************
  
  ------------------------------------------------------------------------------------------
                                 COD         NH3-N            TN            TP            SS
  Link                            kg            kg            kg            kg            kg
  ------------------------------------------------------------------------------------------
  WSL2038                     96.303         0.000         0.000         0.000         0.000
  WSL2039                    101.730         0.000         0.000         0.000         0.000
  WSL2041                     99.010         0.000         0.000         0.000         0.000
  WSL2294                    270.813         0.000         0.000         0.000         0.000
  WSL2295                    262.157         0.000         0.000         0.000         0.000
  WSL2296                    261.075         0.000         0.000         0.000         0.000
  WSL2297                    257.333         0.000         0.000         0.000         0.000
  WSL2298                    258.638         0.000         0.000         0.000         0.000
  WSL2301                    253.240         0.000         0.000         0.000         0.000
  WSL2302                    250.789         0.000         0.000         0.000         0.000
  WSL2441                    278.518         0.000         0.000         0.000         0.000
  WSL2442                     91.244         0.000         0.000         0.000         0.000
  WSL2443                     87.831         0.000         0.000         0.000         0.000
  WSL2444                     85.989         0.000         0.000         0.000         0.000
  WSL2446                     84.703         0.000         0.000         0.000         0.000
  WSL2447                     83.812         0.000         0.000         0.000         0.000
  WSL2448                     83.702         0.000         0.000         0.000         0.000
  WSL2449                     82.498         0.000         0.000         0.000         0.000
  WSL2450                     81.179         0.000         0.000         0.000         0.000
  WSL2451                     79.786         0.000         0.000         0.000         0.000
  WSL2452                     78.933         0.000         0.000         0.000         0.000
  WSL2454                     77.865         0.000         0.000         0.000         0.000
  WSL2478                     77.008         0.000         0.000         0.000         0.000
  WSL2479                    148.054         0.000         0.000         0.000         0.000
  WSL2480                    155.455         0.000         0.000         0.000         0.000
  WSL2482                    151.481         0.000         0.000         0.000         0.000
  WSL2484                    105.326         0.000         0.000         0.000         0.000
  WSL2493                     92.104         0.000         0.000         0.000         0.000
  8                          275.151         0.000         0.000         0.000         0.000
  19                           0.000         0.000         0.000         0.000         0.000
  17                         245.422         0.000         0.000         0.000         0.000
  CC-Pump-1                    0.000         0.000         0.000         0.000         0.000
  CC-Pump-2                    0.000         0.000         0.000         0.000         0.000
  

  Analysis begun on:  Fri Nov 22 19:18:17 2019
  Analysis ended on:  Fri Nov 22 19:18:17 2019
  Total elapsed time: < 1 sec