
  EPA STORM WATER MANAGEMENT MODEL - VERSION 5.1 (Build 5.2.0.dev5)
  --------------------------------------------------------------

  
  *********************************************************
  NOTE: The summary statistics displayed in this report are
  based on results found at every computational time step,  
  not just on results from each reporting time step.
  *********************************************************
  
  ****************
  Analysis Options
  ****************
  Flow Units ............... MLD
  Process Models:
    Rainfall/Runoff ........ YES
    RDII ................... NO
    Snowmelt ............... NO
    Groundwater ............ NO
    Flow Routing ........... YES
    Ponding Allowed ........ NO
    Water Quality .......... YES
  Infiltration Method ...... GREEN_AMPT
  Flow Routing Method ...... DYNWAVE
  Surcharge Method ......... EXTRAN
  Starting Date ............ 08/28/2015 08:00:00
  Ending Date .............. 08/28/2015 11:50:00
  Antecedent Dry Days ...... 4.0
  Report Time Step ......... 00:01:00
  Wet Time Step ............ 00:01:00
  Dry Time Step ............ 00:01:00
  Routing Time Step ........ 5.00 sec
  Variable Time Step ....... YES
  Maximum Trials ........... 8
  Number of Threads ........ 1
  Head Tolerance ........... 0.001500 m
  
  
  **************************        Volume         Depth
  Runoff Quantity Continuity     hectare-m            mm
  **************************     ---------       -------
  Total Precipitation ......         0.837        13.526
  Evaporation Loss .........         0.000         0.000
  Infiltration Loss ........         0.425         6.866
  Surface Runoff ...........         0.157         2.534
  Final Storage ............         0.255         4.127
  Continuity Error (%) .....        -0.008
  
  
  **************************           COD         NH3-N            TN            TP            SS
  Runoff Quality Continuity             kg            kg            kg            kg            kg
  **************************    ----------    ----------    ----------    ----------    ----------
  Initial Buildup ..........      2504.640         0.000         0.000         0.000         0.000
  Surface Buildup ..........        19.924         0.000         0.000         0.000         0.000
  Wet Deposition ...........         0.000         0.000         0.000         0.000         0.000
  Sweeping Removal .........         0.000         0.000         0.000         0.000         0.000
  Infiltration Loss ........        50.455         0.000         0.000         0.000         0.000
  BMP Removal ..............         0.000         0.000         0.000         0.000         0.000
  Surface Runoff ...........       180.039         0.000         0.000         0.000         0.000
  Remaining Buildup ........      2293.331         0.000         0.000         0.000         0.000
  Continuity Error (%) .....         0.029         0.000         0.000         0.000         0.000
  
  
  **************************        Volume        Volume
  Flow Routing Continuity        hectare-m      10^6 ltr
  **************************     ---------     ---------
  Dry Weather Inflow .......         0.000         0.000
  Wet Weather Inflow .......         0.156         1.564
  Groundwater Inflow .......         0.000         0.000
  RDII Inflow ..............         0.000         0.000
  External Inflow ..........         0.082         0.822
  External Outflow .........         0.212         2.123
  Flooding Loss ............         0.002         0.024
  Evaporation Loss .........         0.000         0.000
  Exfiltration Loss ........         0.000         0.000
  Initial Stored Volume ....         0.000         0.000
  Final Stored Volume ......         0.046         0.463
  Continuity Error (%) .....        -9.374
  
  
  **************************           COD         NH3-N            TN            TP            SS
  Quality Routing Continuity            kg            kg            kg            kg            kg
  **************************    ----------    ----------    ----------    ----------    ----------
  Dry Weather Inflow .......         0.000         0.000         0.000         0.000         0.000
  Wet Weather Inflow .......       179.643         0.000         0.000         0.000         0.000
  Groundwater Inflow .......         0.000         0.000         0.000         0.000         0.000
  RDII Inflow ..............         0.000         0.000         0.000         0.000         0.000
  External Inflow ..........       137.264         0.000         0.000         0.000         0.000
  External Outflow .........       223.701         0.000         0.000         0.000         0.000
  Flooding Loss ............         3.612         0.000         0.000         0.000         0.000
  Exfiltration Loss ........         0.000         0.000         0.000         0.000         0.000
  Mass Reacted .............         0.000         0.000         0.000         0.000         0.000
  Initial Stored Mass ......         0.000         0.000         0.000         0.000         0.000
  Final Stored Mass ........        55.550         0.000         0.000         0.000         0.000
  Continuity Error (%) .....        10.743         0.000         0.000         0.000         0.000
  
  
  *************************
  Highest Continuity Errors
  *************************
  Node WS02006230 (4.96%)
  Node WS02006115 (4.04%)
  Node WS02006242 (3.75%)
  Node WS02006116 (3.67%)
  Node WS02006243 (3.49%)
  
  
  ***************************
  Time-Step Critical Elements
  ***************************
  Link 8 (77.61%)
  Link WSL2448 (9.60%)
  Link 17 (9.47%)
  
  
  ********************************
  Highest Flow Instability Indexes
  ********************************
  Link WSL2302 (3)
  Link WSL2301 (3)
  Link WSL2297 (2)
  Link WSL2493 (2)
  Link WSL2296 (2)
  
  
  *************************
  Routing Time Step Summary
  *************************
  Minimum Time Step           :     0.39 sec
  Average Time Step           :     0.98 sec
  Maximum Time Step           :     5.00 sec
  Percent in Steady State     :    -0.00
  Average Iterations per Step :     2.17
  Percent Not Converging      :     1.37
  
  
  ***************************
  Subcatchment Runoff Summary
  ***************************
  
  ------------------------------------------------------------------------------------------------------------------------------
                            Total      Total      Total      Total     Imperv       Perv      Total       Total     Peak  Runoff
                           Precip      Runon       Evap      Infil     Runoff     Runoff     Runoff      Runoff   Runoff   Coeff
  Subcatchment                 mm         mm         mm         mm         mm         mm         mm    10^6 ltr      MLD
  ------------------------------------------------------------------------------------------------------------------------------
  1                         13.53      12.20       0.00       7.94       6.06       4.01      10.06        0.12     2.46   0.391
  2                         13.53       0.00       0.00       6.58       3.17       0.72       3.89        0.13     2.75   0.288
  3                         13.53       0.00       0.00       6.60       3.11       0.60       3.72        0.19     3.93   0.275
  35                        13.53       0.00       0.00       6.58       3.18       0.76       3.94        0.12     2.51   0.291
  36                        13.53       7.44       0.00       7.66       4.74       1.49       6.23        0.37     7.34   0.297
  40                        13.53       2.05       0.00       6.91       3.61       0.95       4.56        0.18     3.69   0.293
  41                        13.53       0.00       0.00       6.55       3.23       0.91       4.14        0.08     1.72   0.306
  42                        13.53       0.00       0.00       6.56       3.21       0.85       4.07        0.09     1.97   0.301
  43                        13.53       0.00       0.00       6.40       3.32       1.74       5.06        0.02     0.42   0.374
  44                        13.53     103.78       0.00      12.43      28.51      53.87      82.39        0.30     5.88   0.702
  45                        13.53       0.00       0.00       6.50       3.27       1.18       4.46        0.05     1.01   0.329
  46                        13.53       6.23       0.00       7.42       4.64       2.02       6.67        0.14     2.95   0.337
  47                        13.53       0.00       0.00       6.51       3.27       1.15       4.42        0.05     1.07   0.326
  48                        13.53       3.10       0.00       6.99       3.96       1.60       5.56        0.09     1.86   0.335
  55                        13.53       4.61       0.00       7.12       4.37       2.46       6.83        0.06     1.22   0.376
  56                        13.53       6.86       0.00       7.49       4.78       2.14       6.93        0.15     3.05   0.340
  57                        13.53       0.00       0.00       6.60       3.12       0.61       3.72        0.19     3.87   0.275
  59                        13.53       0.00       0.00       6.49       3.29       1.28       4.56        0.04     0.85   0.337
  60                        13.53      10.08       0.00       7.66       5.71       4.79      10.50        0.05     1.17   0.445
  61                        13.53       0.00       0.00       6.64       2.87       0.34       3.21        0.58    11.66   0.237
  64                        13.53       0.00       0.00       6.52       3.26       1.11       4.38        0.05     1.14   0.324
  
  
  ****************************
  Subcatchment Washoff Summary
  ****************************
  
  ------------------------------------------------------------------------------------------
                                 COD         NH3-N            TN            TP            SS
  Subcatchment                    kg            kg            kg            kg            kg
  ------------------------------------------------------------------------------------------
  1                           12.407         0.000         0.000         0.000         0.000
  2                            0.000         0.000         0.000         0.000         0.000
  3                            0.000         0.000         0.000         0.000         0.000
  35                          14.053         0.000         0.000         0.000         0.000
  36                          81.474         0.000         0.000         0.000         0.000
  40                          26.292         0.000         0.000         0.000         0.000
  41                           9.857         0.000         0.000         0.000         0.000
  42                          11.204         0.000         0.000         0.000         0.000
  43                           2.668         0.000         0.000         0.000         0.000
  44                          76.923         0.000         0.000         0.000         0.000
  45                           5.992         0.000         0.000         0.000         0.000
  46                          31.761         0.000         0.000         0.000         0.000
  47                           6.352         0.000         0.000         0.000         0.000
  48                          15.536         0.000         0.000         0.000         0.000
  55                          11.998         0.000         0.000         0.000         0.000
  56                          35.031         0.000         0.000         0.000         0.000
  57                          20.971         0.000         0.000         0.000         0.000
  59                           5.113         0.000         0.000         0.000         0.000
  60                          15.382         0.000         0.000         0.000         0.000
  61                          57.739         0.000         0.000         0.000         0.000
  64                           6.752         0.000         0.000         0.000         0.000
  ------------------------------------------------------------------------------------------
  System                     447.506         0.000         0.000         0.000         0.000
  
  
  ******************
  Node Depth Summary
  ******************
  
  ---------------------------------------------------------------------------------
                                 Average  Maximum  Maximum  Time of Max    Reported
                                   Depth    Depth      HGL   Occurrence   Max Depth
  Node                 Type       Meters   Meters   Meters  days hr:min      Meters
  ---------------------------------------------------------------------------------
  WS01000070           JUNCTION     0.00     0.00     0.00     0  00:00        0.00
  WS01000323           JUNCTION     0.00     0.00     0.00     0  00:00        0.00
  WS01000533           JUNCTION     0.00     0.00     6.86     0  00:00        0.00
  WS01005172           JUNCTION     0.00     0.00     0.00     0  00:00        0.00
  WS01005181           JUNCTION     0.00     0.00     0.00     0  00:00        0.00
  WS01009841           JUNCTION     0.00     0.00     0.00     0  00:00        0.00
  WS02000078           JUNCTION     0.00     0.00     0.00     0  00:00        0.00
  WS02000112           JUNCTION     0.00     0.00     0.00     0  00:00        0.00
  WS02000136           JUNCTION     0.00     0.00     0.00     0  00:00        0.00
  WS02004053           JUNCTION     0.00     0.00     0.00     0  00:00        0.00
  WS02004401           JUNCTION     2.15     2.32     8.32     0  03:24        2.32
  WS02005192           JUNCTION     0.42     0.98     8.85     0  01:46        0.68
  WS02005193           JUNCTION     0.47     0.78     8.60     0  01:45        0.71
  WS02005196           JUNCTION     0.44     0.90     8.75     0  01:45        0.68
  WS02006109           JUNCTION     1.56     1.72     8.34     0  03:23        1.72
  WS02006110           JUNCTION     1.57     1.74     8.34     0  02:32        1.74
  WS02006111           JUNCTION     1.59     1.75     8.33     0  02:32        1.75
  WS02006112           JUNCTION     2.03     2.21     8.33     0  02:32        2.21
  WS02006113           JUNCTION     1.58     1.75     8.34     0  02:32        1.75
  WS02006115           JUNCTION     2.05     2.23     8.33     0  02:32        2.22
  WS02006116           JUNCTION     2.11     2.29     8.33     0  02:32        2.28
  WS02006183           JUNCTION     0.00     0.00     0.00     0  00:00        0.00
  WS02006228           JUNCTION     1.53     1.70     8.35     0  03:20        1.70
  WS02006229           JUNCTION     1.49     1.66     8.35     0  01:47        1.66
  WS02006230           JUNCTION     1.43     1.61     8.36     0  01:47        1.60
  WS02006231           JUNCTION     1.29     1.46     8.36     0  01:47        1.46
  WS02006232           JUNCTION     1.17     1.33     8.36     0  01:47        1.33
  WS02006234           JUNCTION     1.05     1.20     8.36     0  01:47        1.20
  WS02006235           JUNCTION     1.04     1.19     8.36     0  01:47        1.19
  WS02006238           JUNCTION     1.03     1.18     8.36     0  02:30        1.18
  WS02006239           JUNCTION     1.00     1.16     8.37     0  02:30        1.16
  WS02006242           JUNCTION     0.92     1.07     8.37     0  03:20        1.07
  WS02006240           JUNCTION     0.93     1.08     8.37     0  02:30        1.08
  WS02006243           JUNCTION     0.81     0.96     8.38     0  03:20        0.95
  WS02006245           JUNCTION     0.75     0.89     8.38     0  03:20        0.89
  WS02006247           JUNCTION     0.73     0.87     8.38     0  03:20        0.87
  WS02006248           JUNCTION     0.65     0.79     8.38     0  03:20        0.79
  WS02006249           JUNCTION     0.65     0.82     8.42     0  02:30        0.81
  WS02006251           JUNCTION     0.60     1.09     8.76     0  01:45        0.82
  WS02006253           JUNCTION     0.48     0.73     8.53     0  02:30        0.73
  WS02618401           JUNCTION     0.00     0.00     0.00     0  00:00        0.00
  WSA1649              JUNCTION     0.00     0.00     0.00     0  00:00        0.00
  outfall-5            OUTFALL      0.11     0.19     7.86     0  03:20        0.19
  outfall-14           OUTFALL      0.08     0.12     7.78     0  03:24        0.12
  outfall-16           OUTFALL      0.00     0.00     8.39     0  00:00        0.00
  CC-storage           STORAGE      1.40     5.63     8.81     0  03:07        5.63
  
  
  *******************
  Node Inflow Summary
  *******************
  
  -------------------------------------------------------------------------------------------------
                                  Maximum  Maximum                  Lateral       Total        Flow
                                  Lateral    Total  Time of Max      Inflow      Inflow     Balance
                                   Inflow   Inflow   Occurrence      Volume      Volume       Error
  Node                 Type           MLD      MLD  days hr:min    10^6 ltr    10^6 ltr     Percent
  -------------------------------------------------------------------------------------------------
  WS01000070           JUNCTION      0.00     0.00     0  00:00           0           0       0.000 ltr
  WS01000323           JUNCTION      0.00     0.00     0  00:00           0           0       0.000 ltr
  WS01000533           JUNCTION      0.00     0.00     0  00:00           0           0       0.000 ltr
  WS01005172           JUNCTION      0.00     0.00     0  00:00           0           0       0.000 ltr
  WS01005181           JUNCTION      0.00     0.00     0  00:00           0           0       0.000 ltr
  WS01009841           JUNCTION      0.00     0.00     0  00:00           0           0       0.000 ltr
  WS02000078           JUNCTION      0.00     0.00     0  00:00           0           0       0.000 ltr
  WS02000112           JUNCTION      0.00     0.00     0  00:00           0           0       0.000 ltr
  WS02000136           JUNCTION      0.00     0.00     0  00:00           0           0       0.000 ltr
  WS02004053           JUNCTION      0.00     0.00     0  00:00           0           0       0.000 ltr
  WS02004401           JUNCTION      0.05    15.61     0  03:24      0.0086       0.877       3.327
  WS02005192           JUNCTION      3.96     3.96     0  03:01       0.203       0.205       1.270
  WS02005193           JUNCTION      0.09    11.30     0  03:25       0.014       0.263       2.833
  WS02005196           JUNCTION      0.12     5.37     0  02:32      0.0183       0.234       2.868
  WS02006109           JUNCTION      0.08    13.99     0  00:31      0.0129       0.777       3.192
  WS02006110           JUNCTION      0.08    13.44     0  03:25      0.0126       0.764       3.311
  WS02006111           JUNCTION      0.24    15.14     0  03:24      0.0352       0.937       2.233
  WS02006112           JUNCTION      0.18    15.29     0  03:24      0.0263        0.94       3.527
  WS02006113           JUNCTION      4.07    14.95     0  03:24       0.215       0.939       2.565
  WS02006115           JUNCTION      0.08    15.37     0  03:24      0.0129       0.921       4.206
  WS02006116           JUNCTION      0.24    15.56     0  03:24      0.0347       0.917       3.805
  WS02006183           JUNCTION      0.00     0.00     0  00:00           0           0       0.000 ltr
  WS02006228           JUNCTION      6.04    13.97     0  00:30       0.331         0.8       2.280
  WS02006229           JUNCTION      0.13    14.32     0  00:30      0.0193       0.505       3.229
  WS02006230           JUNCTION      0.07    14.11     0  00:30      0.0111       0.511       5.218
  WS02006231           JUNCTION      0.13    13.97     0  01:09      0.0197       0.513       2.823
  WS02006232           JUNCTION      2.83    13.47     0  01:09       0.144       0.571       2.753
  WS02006234           JUNCTION      0.14    13.06     0  01:09      0.0208       0.503       2.809
  WS02006235           JUNCTION      0.14    12.74     0  01:08      0.0215       0.495       1.617
  WS02006238           JUNCTION      0.15    12.95     0  01:08      0.0226       0.491       2.084
  WS02006239           JUNCTION      0.11    13.01     0  01:08      0.0167       0.489       3.210
  WS02006242           JUNCTION      0.08    13.88     0  01:07      0.0124       0.489       3.893
  WS02006240           JUNCTION      0.06    13.23     0  01:07     0.00952       0.487       3.482
  WS02006243           JUNCTION      0.17    14.19     0  01:06      0.0259       0.488       3.614
  WS02006245           JUNCTION      0.07    14.04     0  01:06      0.0109       0.469       2.873
  WS02006247           JUNCTION      2.59    14.19     0  01:06       0.146       0.526       2.199
  WS02006248           JUNCTION      0.12    38.54     0  02:30      0.0185        1.58       0.678
  WS02006249           JUNCTION      0.19    38.42     0  02:30      0.0275         1.4       1.025
  WS02006251           JUNCTION      1.28    38.23     0  02:30       0.066        1.39       1.046
  WS02006253           JUNCTION      0.11    37.48     0  02:30      0.0166        1.35       0.537
  WS02618401           JUNCTION      0.00     0.00     0  00:00           0           0       0.000 ltr
  WSA1649              JUNCTION      0.00     0.00     0  00:00           0           0       0.000 ltr
  outfall-5            OUTFALL       0.00    35.03     0  03:20           0        1.28       0.000
  outfall-14           OUTFALL       0.00    15.61     0  03:24           0       0.839       0.000
  outfall-16           OUTFALL       0.00     0.00     0  00:00           0           0       0.000 ltr
  CC-storage           STORAGE      13.12    13.12     0  03:01       0.853       0.853     -23.274
  
  
  **********************
  Node Surcharge Summary
  **********************
  
  Surcharging occurs when water rises above the top of the highest conduit.
  ---------------------------------------------------------------------
                                               Max. Height   Min. Depth
                                   Hours       Above Crown    Below Rim
  Node                 Type      Surcharged         Meters       Meters
  ---------------------------------------------------------------------
  WS01000070           JUNCTION        3.83          0.000        0.000
  WS01000323           JUNCTION        3.83          0.000        0.000
  WS01000533           JUNCTION        3.83          0.000        2.147
  WS01005172           JUNCTION        3.83          0.000        0.000
  WS01005181           JUNCTION        3.83          0.000        0.000
  WS01009841           JUNCTION        3.83          0.000        0.000
  WS02000078           JUNCTION        3.83          0.000        0.000
  WS02000112           JUNCTION        3.83          0.000        0.000
  WS02000136           JUNCTION        3.83          0.000        0.000
  WS02004053           JUNCTION        3.83          0.000        0.000
  WS02005192           JUNCTION        0.18          0.382        2.437
  WS02005193           JUNCTION        0.25          0.179        2.438
  WS02005196           JUNCTION        0.20          0.301        2.405
  WS02006109           JUNCTION        2.60          0.924        0.914
  WS02006110           JUNCTION        2.61          0.940        0.905
  WS02006111           JUNCTION        2.64          0.954        0.923
  WS02006112           JUNCTION        2.81          1.210        0.473
  WS02006113           JUNCTION        2.62          0.947        0.986
  WS02006115           JUNCTION        2.85          1.228        1.071
  WS02006116           JUNCTION        2.97          1.287        1.063
  WS02006183           JUNCTION        3.83          0.000        0.000
  WS02006228           JUNCTION        2.58          0.898        1.333
  WS02006229           JUNCTION        2.58          0.860        1.594
  WS02006231           JUNCTION        2.52          0.762        0.781
  WS02006232           JUNCTION        2.45          0.633        0.856
  WS02006234           JUNCTION        2.30          0.504        0.753
  WS02006235           JUNCTION        2.29          0.494        0.800
  WS02006238           JUNCTION        2.28          0.484        0.950
  WS02006239           JUNCTION        2.24          0.457        0.872
  WS02006242           JUNCTION        2.18          0.372        0.477
  WS02006240           JUNCTION        2.20          0.379        1.024
  WS02006243           JUNCTION        2.12          0.255        0.525
  WS02006245           JUNCTION        2.11          0.188        0.667
  WS02006247           JUNCTION        2.10          0.170        0.590
  WS02006249           JUNCTION        1.06          0.116        0.272
  WS02006251           JUNCTION        0.44          0.385        1.125
  WS02006253           JUNCTION        0.14          0.032        2.422
  WS02618401           JUNCTION        3.83          0.000        0.000
  WSA1649              JUNCTION        3.83          0.000        0.000
  
  
  *********************
  Node Flooding Summary
  *********************
  
  Flooding refers to all water that overflows a node, whether it ponds or not.
  --------------------------------------------------------------------------
                                                             Total   Maximum
                                 Maximum   Time of Max       Flood    Ponded
                        Hours       Rate    Occurrence      Volume     Depth
  Node                 Flooded       MLD   days hr:min    10^6 ltr    Meters
  --------------------------------------------------------------------------
  CC-storage              0.08     10.33      0  03:07       0.024     0.000
  
  
  **********************
  Storage Volume Summary
  **********************
  
  --------------------------------------------------------------------------------------------------
                         Average     Avg  Evap Exfil       Maximum     Max    Time of Max    Maximum
                          Volume    Pcnt  Pcnt  Pcnt        Volume    Pcnt     Occurrence    Outflow
  Storage Unit           1000 m3    Full  Loss  Loss       1000 m3    Full    days hr:min        MLD
  --------------------------------------------------------------------------------------------------
  CC-storage               0.040      25     0     0         0.159     100       0  03:07      34.56
  
  
  ***********************
  Outfall Loading Summary
  ***********************
  
  ---------------------------------------------------------------------------------------------------------------------------------
                         Flow       Avg       Max       Total         Total         Total         Total         Total         Total
                         Freq      Flow      Flow      Volume           COD         NH3-N            TN            TP            SS
  Outfall Node           Pcnt       MLD       MLD    10^6 ltr            kg            kg            kg            kg            kg
  ---------------------------------------------------------------------------------------------------------------------------------
  outfall-5             88.06     15.66     35.03       1.284       109.734         0.000         0.000         0.000         0.000
  outfall-14            87.91      9.94     15.61       0.839       113.975         0.000         0.000         0.000         0.000
  outfall-16             0.00      0.00      0.00       0.000         0.000         0.000         0.000         0.000         0.000
  ---------------------------------------------------------------------------------------------------------------------------------
  System                58.66     25.60     49.31       2.123       223.709         0.000         0.000         0.000         0.000
  
  
  ********************
  Link Flow Summary
  ********************
  
  -----------------------------------------------------------------------------
                                 Maximum  Time of Max   Maximum    Max/    Max/
                                  |Flow|   Occurrence   |Veloc|    Full    Full
  Link                 Type          MLD  days hr:min     m/sec    Flow   Depth
  -----------------------------------------------------------------------------
  WSL2038              CONDUIT      5.26     0  02:32      0.41    0.26    1.00
  WSL2039              CONDUIT     14.63     0  03:25      0.72    0.75    1.00
  WSL2041              CONDUIT     11.21     0  03:25      0.59    0.55    1.00
  WSL2294              CONDUIT     13.37     0  03:25      0.89    0.45    1.00
  WSL2295              CONDUIT     13.44     0  03:25      0.94    0.60    1.00
  WSL2296              CONDUIT     15.14     0  03:24      0.78    0.09    1.00
  WSL2297              CONDUIT     15.29     0  03:24      0.36    0.29    1.00
  WSL2298              CONDUIT     14.95     0  03:24      1.55    0.69    1.00
  WSL2301              CONDUIT     15.37     0  03:24      0.29    0.14    1.00
  WSL2302              CONDUIT     15.56     0  03:24      0.23    0.19    1.00
  WSL2441              CONDUIT     13.91     0  00:31      0.96    0.36    1.00
  WSL2442              CONDUIT     14.19     0  00:30      1.15    0.36    1.00
  WSL2443              CONDUIT     14.03     0  00:30      1.28    0.22    1.00
  WSL2444              CONDUIT     13.84     0  01:09      1.44    0.22    1.00
  WSL2446              CONDUIT     13.29     0  01:09      1.43    0.23    1.00
  WSL2447              CONDUIT     12.92     0  01:09      1.21    0.66    1.00
  WSL2448              CONDUIT     12.60     0  01:08      1.02    0.35    1.00
  WSL2449              CONDUIT     12.80     0  01:08      0.99    0.45    1.00
  WSL2450              CONDUIT     12.90     0  01:08      1.05    0.27    1.00
  WSL2451              CONDUIT     13.17     0  01:07      1.02    0.86    1.00
  WSL2452              CONDUIT     13.80     0  01:07      1.09    0.26    1.00
  WSL2454              CONDUIT     14.02     0  01:06      1.24    0.33    1.00
  WSL2478              CONDUIT     13.97     0  01:06      1.11    0.49    1.00
  WSL2479              CONDUIT     14.00     0  01:06      1.14    0.27    1.00
  WSL2480              CONDUIT     38.43     0  02:30      1.16    1.78    1.00
  WSL2482              CONDUIT     38.25     0  02:30      1.15    1.00    1.00
  WSL2484              CONDUIT     37.54     0  02:30      1.33    0.53    1.00
  WSL2493              CONDUIT     13.78     0  00:30      1.00    0.23    1.00
  8                    CONDUIT     35.03     0  03:20      6.84    0.46    0.48
  19                   CONDUIT      0.00     0  00:00      0.00    0.00    0.00
  17                   CONDUIT     15.61     0  03:24      5.56    0.20    0.31
  CC-Pump-1            PUMP        17.28     0  02:30              1.00
  CC-Pump-2            PUMP        17.28     0  02:30              1.00
  
  
  ***************************
  Flow Classification Summary
  ***************************
  
  -------------------------------------------------------------------------------------
                      Adjusted    ---------- Fraction of Time in Flow Class ---------- 
                       /Actual         Up    Down  Sub   Sup   Up    Down  Norm  Inlet 
  Conduit               Length    Dry  Dry   Dry   Crit  Crit  Crit  Crit  Ltd   Ctrl  
  -------------------------------------------------------------------------------------
  WSL2038                 1.00   0.00  0.00  0.00  1.00  0.00  0.00  0.00  0.01  0.00
  WSL2039                 1.00   0.00  0.00  0.00  1.00  0.00  0.00  0.00  0.01  0.00
  WSL2041                 1.00   0.00  0.00  0.00  1.00  0.00  0.00  0.00  0.18  0.00
  WSL2294                 1.00   0.00  0.00  0.00  1.00  0.00  0.00  0.00  0.00  0.00
  WSL2295                 1.00   0.00  0.00  0.00  1.00  0.00  0.00  0.00  0.00  0.00
  WSL2296                 1.00   0.00  0.00  0.00  1.00  0.00  0.00  0.00  0.15  0.00
  WSL2297                 1.00   0.00  0.00  0.00  1.00  0.00  0.00  0.00  0.00  0.00
  WSL2298                 1.00   0.00  0.00  0.00  0.98  0.02  0.00  0.00  0.00  0.00
  WSL2301                 1.00   0.00  0.00  0.00  1.00  0.00  0.00  0.00  0.04  0.00
  WSL2302                 1.00   0.00  0.00  0.00  1.00  0.00  0.00  0.00  0.01  0.00
  WSL2441                 1.00   0.00  0.00  0.00  1.00  0.00  0.00  0.00  0.00  0.00
  WSL2442                 1.00   0.00  0.00  0.00  1.00  0.00  0.00  0.00  0.04  0.00
  WSL2443                 1.00   0.00  0.00  0.00  1.00  0.00  0.00  0.00  0.17  0.00
  WSL2444                 1.00   0.00  0.00  0.00  0.95  0.05  0.00  0.00  0.15  0.00
  WSL2446                 1.00   0.00  0.00  0.00  0.94  0.06  0.00  0.00  0.16  0.00
  WSL2447                 1.00   0.00  0.00  0.00  1.00  0.00  0.00  0.00  0.00  0.00
  WSL2448                 1.00   0.00  0.00  0.00  1.00  0.00  0.00  0.00  0.01  0.00
  WSL2449                 1.00   0.00  0.00  0.00  1.00  0.00  0.00  0.00  0.04  0.00
  WSL2450                 1.00   0.00  0.00  0.00  1.00  0.00  0.00  0.00  0.20  0.00
  WSL2451                 1.00   0.00  0.00  0.00  1.00  0.00  0.00  0.00  0.00  0.00
  WSL2452                 1.00   0.00  0.00  0.00  1.00  0.00  0.00  0.00  0.29  0.00
  WSL2454                 1.00   0.00  0.00  0.00  1.00  0.00  0.00  0.00  0.05  0.00
  WSL2478                 1.00   0.00  0.00  0.00  1.00  0.00  0.00  0.00  0.00  0.00
  WSL2479                 1.00   0.00  0.00  0.00  1.00  0.00  0.00  0.00  0.21  0.00
  WSL2480                 1.00   0.00  0.00  0.00  1.00  0.00  0.00  0.00  0.00  0.00
  WSL2482                 1.00   0.00  0.00  0.00  1.00  0.00  0.00  0.00  0.24  0.00
  WSL2484                 1.00   0.00  0.00  0.00  1.00  0.00  0.00  0.00  0.25  0.00
  WSL2493                 1.00   0.00  0.00  0.00  1.00  0.00  0.00  0.00  0.05  0.00
  8                       1.00   0.12  0.00  0.00  0.00  0.88  0.00  0.00  0.11  0.00
  19                      1.00   1.00  0.00  0.00  0.00  0.00  0.00  0.00  0.00  0.00
  17                      1.00   0.12  0.00  0.00  0.00  0.88  0.00  0.00  0.04  0.00
  
  
  *************************
  Conduit Surcharge Summary
  *************************
  
  ----------------------------------------------------------------------------
                                                           Hours        Hours 
                         --------- Hours Full --------   Above Full   Capacity
  Conduit                Both Ends  Upstream  Dnstream   Normal Flow   Limited
  ----------------------------------------------------------------------------
  WSL2038                     0.18      0.18      0.20      0.01         0.01
  WSL2039                     0.24      0.25      0.29      0.01         0.01
  WSL2041                     0.20      0.20      0.25      0.01         0.01
  WSL2294                     2.60      2.60      2.61      0.01         0.01
  WSL2295                     2.61      2.61      2.62      0.01         0.01
  WSL2296                     2.64      2.64      3.12      0.01         0.01
  WSL2297                     2.81      2.81      2.85      0.01         0.01
  WSL2298                     2.62      2.62      2.64      0.01         0.02
  WSL2301                     2.85      2.85      2.96      0.01         0.01
  WSL2302                     2.96      2.96      3.04      0.01         0.01
  WSL2441                     2.58      2.58      2.60      0.01         0.01
  WSL2442                     2.59      2.59      2.63      0.01         0.01
  WSL2443                     2.51      2.51      2.59      0.01         0.01
  WSL2444                     2.45      2.45      2.51      0.01         0.01
  WSL2446                     2.30      2.30      2.45      0.01         0.01
  WSL2447                     2.29      2.29      2.30      0.01         0.01
  WSL2448                     2.28      2.28      2.29      0.01         0.01
  WSL2449                     2.24      2.24      2.28      0.01         0.01
  WSL2450                     2.20      2.20      2.24      0.01         0.01
  WSL2451                     2.18      2.18      2.20      0.01         0.01
  WSL2452                     2.12      2.12      2.18      0.01         0.01
  WSL2454                     2.11      2.11      2.12      0.01         0.01
  WSL2478                     2.10      2.10      2.11      0.01         0.01
  WSL2479                     1.50      1.50      2.10      0.01         0.01
  WSL2480                     1.05      1.06      1.50      0.51         0.52
  WSL2482                     0.44      0.44      1.06      0.01         0.03
  WSL2484                     0.14      0.14      0.44      0.01         0.01
  WSL2493                     2.58      2.58      2.58      0.01         0.01
  
  
  ***************
  Pumping Summary
  ***************
  
  ---------------------------------------------------------------------------------------------------------
                                                  Min       Avg       Max     Total     Power    % Time Off
                        Percent   Number of      Flow      Flow      Flow    Volume     Usage    Pump Curve
  Pump                 Utilized   Start-Ups       MLD       MLD       MLD  10^6 ltr     Kw-hr    Low   High
  ---------------------------------------------------------------------------------------------------------
  CC-Pump-1               56.50           5      0.00      7.67     17.28     0.544      6.04    0.0    0.0
  CC-Pump-2               56.50           5      0.00      7.67     17.28     0.544      6.04    0.0    0.0
  
  
  ***************************
  Link Pollutant Load Summary
  ***************************
  
  ------------------------------------------------------------------------------------------
                                 COD         NH3-N            TN            TP            SS
  Link                            kg            kg            kg            kg            kg
  ------------------------------------------------------------------------------------------
  WSL2038                     24.652         0.000         0.000         0.000         0.000
  WSL2039                     34.131         0.000         0.000         0.000         0.000
  WSL2041                     30.183         0.000         0.000         0.000         0.000
  WSL2294                    123.249         0.000         0.000         0.000         0.000
  WSL2295                    120.757         0.000         0.000         0.000         0.000
  WSL2296                    124.814         0.000         0.000         0.000         0.000
  WSL2297                    124.051         0.000         0.000         0.000         0.000
  WSL2298                    121.060         0.000         0.000         0.000         0.000
  WSL2301                    121.691         0.000         0.000         0.000         0.000
  WSL2302                    120.682         0.000         0.000         0.000         0.000
  WSL2441                    125.756         0.000         0.000         0.000         0.000
  WSL2442                     52.921         0.000         0.000         0.000         0.000
  WSL2443                     52.336         0.000         0.000         0.000         0.000
  WSL2444                     50.270         0.000         0.000         0.000         0.000
  WSL2446                     51.335         0.000         0.000         0.000         0.000
  WSL2447                     53.989         0.000         0.000         0.000         0.000
  WSL2448                     53.688         0.000         0.000         0.000         0.000
  WSL2449                     52.884         0.000         0.000         0.000         0.000
  WSL2450                     51.757         0.000         0.000         0.000         0.000
  WSL2451                     50.253         0.000         0.000         0.000         0.000
  WSL2452                     48.853         0.000         0.000         0.000         0.000
  WSL2454                     46.203         0.000         0.000         0.000         0.000
  WSL2478                     45.098         0.000         0.000         0.000         0.000
  WSL2479                     41.970         0.000         0.000         0.000         0.000
  WSL2480                    120.247         0.000         0.000         0.000         0.000
  WSL2482                    115.887         0.000         0.000         0.000         0.000
  WSL2484                    101.422         0.000         0.000         0.000         0.000
  WSL2493                     54.910         0.000         0.000         0.000         0.000
  8                          109.734         0.000         0.000         0.000         0.000
  19                           0.000         0.000         0.000         0.000         0.000
  17                         113.975         0.000         0.000         0.000         0.000
  CC-Pump-1                   34.882         0.000         0.000         0.000         0.000
  CC-Pump-2                   34.882         0.000         0.000         0.000         0.000
  

  Analysis begun on:  Thu Aug 15 18:09:31 2019
  Analysis ended on:  Thu Aug 15 18:09:32 2019
  Total elapsed time: 00:00:01