
  EPA STORM WATER MANAGEMENT MODEL - VERSION 5.1 (Build 5.2.0.dev5)
  --------------------------------------------------------------

  
  *********************************************************
  NOTE: The summary statistics displayed in this report are
  based on results found at every computational time step,  
  not just on results from each reporting time step.
  *********************************************************
  
  ****************
  Analysis Options
  ****************
  Flow Units ............... MLD
  Process Models:
    Rainfall/Runoff ........ YES
    RDII ................... NO
    Snowmelt ............... NO
    Groundwater ............ NO
    Flow Routing ........... YES
    Ponding Allowed ........ NO
    Water Quality .......... YES
  Infiltration Method ...... GREEN_AMPT
  Flow Routing Method ...... DYNWAVE
  Surcharge Method ......... EXTRAN
  Starting Date ............ 08/28/2015 08:00:00
  Ending Date .............. 08/28/2015 11:50:00
  Antecedent Dry Days ...... 4.0
  Report Time Step ......... 00:01:00
  Wet Time Step ............ 00:01:00
  Dry Time Step ............ 00:01:00
  Routing Time Step ........ 5.00 sec
  Variable Time Step ....... YES
  Maximum Trials ........... 8
  Number of Threads ........ 1
  Head Tolerance ........... 0.001500 m
  
  
  **************************        Volume         Depth
  Runoff Quantity Continuity     hectare-m            mm
  **************************     ---------       -------
  Total Precipitation ......         1.266        20.462
  Evaporation Loss .........         0.000         0.000
  Infiltration Loss ........         0.523         8.456
  Surface Runoff ...........         0.303         4.905
  Final Storage ............         0.439         7.102
  Continuity Error (%) .....        -0.005
  
  
  **************************           COD         NH3-N            TN            TP            SS
  Runoff Quality Continuity             kg            kg            kg            kg            kg
  **************************    ----------    ----------    ----------    ----------    ----------
  Initial Buildup ..........      2504.640         0.000         0.000         0.000         0.000
  Surface Buildup ..........        19.724         0.000         0.000         0.000         0.000
  Wet Deposition ...........         0.000         0.000         0.000         0.000         0.000
  Sweeping Removal .........         0.000         0.000         0.000         0.000         0.000
  Infiltration Loss ........       121.028         0.000         0.000         0.000         0.000
  BMP Removal ..............         0.000         0.000         0.000         0.000         0.000
  Surface Runoff ...........       550.270         0.000         0.000         0.000         0.000
  Remaining Buildup ........      1851.416         0.000         0.000         0.000         0.000
  Continuity Error (%) .....         0.065         0.000         0.000         0.000         0.000
  
  
  **************************        Volume        Volume
  Flow Routing Continuity        hectare-m      10^6 ltr
  **************************     ---------     ---------
  Dry Weather Inflow .......         0.000         0.000
  Wet Weather Inflow .......         0.303         3.028
  Groundwater Inflow .......         0.000         0.000
  RDII Inflow ..............         0.000         0.000
  External Inflow ..........         0.082         0.822
  External Outflow .........         0.331         3.309
  Flooding Loss ............         0.018         0.177
  Evaporation Loss .........         0.000         0.000
  Exfiltration Loss ........         0.000         0.000
  Initial Stored Volume ....         0.000         0.000
  Final Stored Volume ......         0.062         0.616
  Continuity Error (%) .....        -6.537
  
  
  **************************           COD         NH3-N            TN            TP            SS
  Quality Routing Continuity            kg            kg            kg            kg            kg
  **************************    ----------    ----------    ----------    ----------    ----------
  Dry Weather Inflow .......         0.000         0.000         0.000         0.000         0.000
  Wet Weather Inflow .......       549.325         0.000         0.000         0.000         0.000
  Groundwater Inflow .......         0.000         0.000         0.000         0.000         0.000
  RDII Inflow ..............         0.000         0.000         0.000         0.000         0.000
  External Inflow ..........       137.263         0.000         0.000         0.000         0.000
  External Outflow .........       505.131         0.000         0.000         0.000         0.000
  Flooding Loss ............        40.993         0.000         0.000         0.000         0.000
  Exfiltration Loss ........         0.000         0.000         0.000         0.000         0.000
  Mass Reacted .............         0.000         0.000         0.000         0.000         0.000
  Initial Stored Mass ......         0.000         0.000         0.000         0.000         0.000
  Final Stored Mass ........        90.006         0.000         0.000         0.000         0.000
  Continuity Error (%) .....         7.349         0.000         0.000         0.000         0.000
  
  
  *************************
  Highest Continuity Errors
  *************************
  Node WS02006230 (4.99%)
  Node WS02006242 (3.28%)
  Node WS02006229 (3.13%)
  Node WS02006243 (3.03%)
  Node WS02006240 (3.01%)
  
  
  ***************************
  Time-Step Critical Elements
  ***************************
  Link 8 (84.45%)
  Link WSL2448 (7.10%)
  Link 17 (6.45%)
  
  
  ********************************
  Highest Flow Instability Indexes
  ********************************
  Link WSL2302 (3)
  Link WSL2301 (2)
  Link WSL2493 (2)
  Link WSL2297 (2)
  Link WSL2296 (2)
  
  
  *************************
  Routing Time Step Summary
  *************************
  Minimum Time Step           :     0.42 sec
  Average Time Step           :     0.89 sec
  Maximum Time Step           :     5.00 sec
  Percent in Steady State     :    -0.00
  Average Iterations per Step :     2.15
  Percent Not Converging      :     1.42
  
  
  ***************************
  Subcatchment Runoff Summary
  ***************************
  
  ------------------------------------------------------------------------------------------------------------------------------
                            Total      Total      Total      Total     Imperv       Perv      Total       Total     Peak  Runoff
                           Precip      Runon       Evap      Infil     Runoff     Runoff     Runoff      Runoff   Runoff   Coeff
  Subcatchment                 mm         mm         mm         mm         mm         mm         mm    10^6 ltr      MLD
  ------------------------------------------------------------------------------------------------------------------------------
  1                         20.46      25.53       0.00      10.03      10.95      11.88      22.84        0.28     4.23   0.497
  2                         20.46       0.00       0.00       8.01       4.91       2.28       7.19        0.24     4.36   0.352
  3                         20.46       0.00       0.00       8.07       4.86       1.93       6.79        0.35     6.22   0.332
  35                        20.46       0.00       0.00       8.00       4.93       2.38       7.30        0.22     3.98   0.357
  36                        20.46      14.51       0.00       9.71       8.11       4.66      12.77        0.75    11.51   0.365
  40                        20.46       3.85       0.00       8.52       5.77       2.95       8.73        0.34     5.79   0.359
  41                        20.46       0.00       0.00       7.92       4.97       2.81       7.78        0.15     2.72   0.380
  42                        20.46       0.00       0.00       7.95       4.95       2.65       7.60        0.17     3.12   0.371
  43                        20.46       0.00       0.00       7.54       5.06       4.80       9.86        0.04     0.65   0.482
  44                        20.46     212.25       0.00      15.64      56.95     127.19     184.15        0.68    11.25   0.791
  45                        20.46       0.00       0.00       7.80       5.01       3.50       8.52        0.09     1.58   0.416
  46                        20.46      12.26       0.00       9.26       7.80       6.07      13.87        0.30     4.55   0.424
  47                        20.46       0.00       0.00       7.81       5.01       3.42       8.43        0.09     1.69   0.412
  48                        20.46       5.91       0.00       8.56       6.36       4.73      11.10        0.18     2.88   0.421
  55                        20.46       8.85       0.00       8.67       7.12       6.92      14.05        0.12     1.87   0.479
  56                        20.46      13.45       0.00       9.36       8.08       6.42      14.50        0.31     4.71   0.428
  57                        20.46       0.00       0.00       8.07       4.86       1.95       6.81        0.34     6.12   0.333
  59                        20.46       0.00       0.00       7.75       5.03       3.74       8.77        0.07     1.33   0.428
  60                        20.46      19.18       0.00       9.35       9.66      12.56      22.21        0.12     1.81   0.560
  61                        20.46       0.00       0.00       8.20       4.60       1.13       5.73        1.03    18.19   0.280
  64                        20.46       0.00       0.00       7.83       5.00       3.33       8.33        0.10     1.80   0.407
  
  
  ****************************
  Subcatchment Washoff Summary
  ****************************
  
  ------------------------------------------------------------------------------------------
                                 COD         NH3-N            TN            TP            SS
  Subcatchment                    kg            kg            kg            kg            kg
  ------------------------------------------------------------------------------------------
  1                           50.146         0.000         0.000         0.000         0.000
  2                            0.000         0.000         0.000         0.000         0.000
  3                            0.000         0.000         0.000         0.000         0.000
  35                          42.569         0.000         0.000         0.000         0.000
  36                         252.430         0.000         0.000         0.000         0.000
  40                          81.745         0.000         0.000         0.000         0.000
  41                          30.062         0.000         0.000         0.000         0.000
  42                          34.095         0.000         0.000         0.000         0.000
  43                           8.027         0.000         0.000         0.000         0.000
  44                         230.918         0.000         0.000         0.000         0.000
  45                          18.356         0.000         0.000         0.000         0.000
  46                          96.690         0.000         0.000         0.000         0.000
  47                          19.458         0.000         0.000         0.000         0.000
  48                          48.058         0.000         0.000         0.000         0.000
  55                          34.967         0.000         0.000         0.000         0.000
  56                         101.934         0.000         0.000         0.000         0.000
  57                          62.994         0.000         0.000         0.000         0.000
  59                          15.655         0.000         0.000         0.000         0.000
  60                          34.965         0.000         0.000         0.000         0.000
  61                         171.245         0.000         0.000         0.000         0.000
  64                          20.679         0.000         0.000         0.000         0.000
  ------------------------------------------------------------------------------------------
  System                    1354.991         0.000         0.000         0.000         0.000
  
  
  ******************
  Node Depth Summary
  ******************
  
  ---------------------------------------------------------------------------------
                                 Average  Maximum  Maximum  Time of Max    Reported
                                   Depth    Depth      HGL   Occurrence   Max Depth
  Node                 Type       Meters   Meters   Meters  days hr:min      Meters
  ---------------------------------------------------------------------------------
  WS01000070           JUNCTION     0.00     0.00     0.00     0  00:00        0.00
  WS01000323           JUNCTION     0.00     0.00     0.00     0  00:00        0.00
  WS01000533           JUNCTION     0.00     0.00     6.86     0  00:00        0.00
  WS01005172           JUNCTION     0.00     0.00     0.00     0  00:00        0.00
  WS01005181           JUNCTION     0.00     0.00     0.00     0  00:00        0.00
  WS01009841           JUNCTION     0.00     0.00     0.00     0  00:00        0.00
  WS02000078           JUNCTION     0.00     0.00     0.00     0  00:00        0.00
  WS02000112           JUNCTION     0.00     0.00     0.00     0  00:00        0.00
  WS02000136           JUNCTION     0.00     0.00     0.00     0  00:00        0.00
  WS02004053           JUNCTION     0.00     0.00     0.00     0  00:00        0.00
  WS02004401           JUNCTION     2.19     2.35     8.35     0  02:58        2.35
  WS02005192           JUNCTION     0.48     1.08     8.95     0  03:00        0.89
  WS02005193           JUNCTION     0.52     0.95     8.77     0  02:04        0.78
  WS02005196           JUNCTION     0.50     1.09     8.94     0  03:00        0.80
  WS02006109           JUNCTION     1.60     1.78     8.40     0  03:00        1.77
  WS02006110           JUNCTION     1.62     1.80     8.40     0  03:00        1.79
  WS02006111           JUNCTION     1.63     1.80     8.38     0  03:00        1.79
  WS02006112           JUNCTION     2.08     2.25     8.37     0  03:00        2.24
  WS02006113           JUNCTION     1.63     1.80     8.39     0  03:00        1.79
  WS02006115           JUNCTION     2.10     2.27     8.37     0  03:00        2.26
  WS02006116           JUNCTION     2.15     2.32     8.36     0  03:01        2.31
  WS02006183           JUNCTION     0.00     0.00     0.00     0  00:00        0.00
  WS02006228           JUNCTION     1.58     1.76     8.41     0  03:00        1.75
  WS02006229           JUNCTION     1.54     1.72     8.41     0  03:01        1.71
  WS02006230           JUNCTION     1.48     1.65     8.40     0  02:55        1.65
  WS02006231           JUNCTION     1.34     1.50     8.40     0  03:00        1.50
  WS02006232           JUNCTION     1.22     1.38     8.41     0  03:00        1.38
  WS02006234           JUNCTION     1.09     1.25     8.41     0  03:00        1.25
  WS02006235           JUNCTION     1.09     1.24     8.41     0  03:00        1.24
  WS02006238           JUNCTION     1.08     1.23     8.41     0  03:00        1.23
  WS02006239           JUNCTION     1.05     1.20     8.41     0  03:00        1.20
  WS02006242           JUNCTION     0.97     1.11     8.41     0  02:50        1.11
  WS02006240           JUNCTION     0.97     1.12     8.41     0  03:00        1.12
  WS02006243           JUNCTION     0.85     0.99     8.41     0  02:50        0.99
  WS02006245           JUNCTION     0.79     0.93     8.42     0  02:50        0.92
  WS02006247           JUNCTION     0.77     0.91     8.42     0  02:50        0.91
  WS02006248           JUNCTION     0.69     0.83     8.42     0  02:50        0.83
  WS02006249           JUNCTION     0.70     0.92     8.52     0  03:00        0.86
  WS02006251           JUNCTION     0.65     1.09     8.76     0  03:00        0.88
  WS02006253           JUNCTION     0.54     1.03     8.83     0  03:00        0.80
  WS02618401           JUNCTION     0.00     0.00     0.00     0  00:00        0.00
  WSA1649              JUNCTION     0.00     0.00     0.00     0  00:00        0.00
  outfall-5            OUTFALL      0.13     0.23     7.89     0  02:50        0.23
  outfall-14           OUTFALL      0.11     0.15     7.81     0  02:58        0.15
  outfall-16           OUTFALL      0.00     0.00     8.39     0  00:00        0.00
  CC-storage           STORAGE      2.16     5.63     8.81     0  02:29        5.63
  
  
  *******************
  Node Inflow Summary
  *******************
  
  -------------------------------------------------------------------------------------------------
                                  Maximum  Maximum                  Lateral       Total        Flow
                                  Lateral    Total  Time of Max      Inflow      Inflow     Balance
                                   Inflow   Inflow   Occurrence      Volume      Volume       Error
  Node                 Type           MLD      MLD  days hr:min    10^6 ltr    10^6 ltr     Percent
  -------------------------------------------------------------------------------------------------
  WS01000070           JUNCTION      0.00     0.00     0  00:00           0           0       0.000 ltr
  WS01000323           JUNCTION      0.00     0.00     0  00:00           0           0       0.000 ltr
  WS01000533           JUNCTION      0.00     0.00     0  00:00           0           0       0.000 ltr
  WS01005172           JUNCTION      0.00     0.00     0  00:00           0           0       0.000 ltr
  WS01005181           JUNCTION      0.00     0.00     0  00:00           0           0       0.000 ltr
  WS01009841           JUNCTION      0.00     0.00     0  00:00           0           0       0.000 ltr
  WS02000078           JUNCTION      0.00     0.00     0  00:00           0           0       0.000 ltr
  WS02000112           JUNCTION      0.00     0.00     0  00:00           0           0       0.000 ltr
  WS02000136           JUNCTION      0.00     0.00     0  00:00           0           0       0.000 ltr
  WS02004053           JUNCTION      0.00     0.00     0  00:00           0           0       0.000 ltr
  WS02004401           JUNCTION      0.05    23.46     0  02:58      0.0086        1.35       2.147
  WS02005192           JUNCTION      6.22     6.22     0  02:22       0.357       0.359       0.698
  WS02005193           JUNCTION      0.09     9.45     0  02:02       0.014       0.402       1.764
  WS02005196           JUNCTION      0.12     6.45     0  02:23      0.0183       0.382       1.704
  WS02006109           JUNCTION      0.08    18.03     0  03:00      0.0129        1.08       2.282
  WS02006110           JUNCTION      0.08    18.10     0  03:00      0.0126        1.07       2.345
  WS02006111           JUNCTION      0.24    22.96     0  02:58      0.0352        1.41       1.468
  WS02006112           JUNCTION      0.18    23.12     0  02:58      0.0263        1.41       2.312
  WS02006113           JUNCTION      6.38    22.75     0  02:58       0.371        1.41       1.696
  WS02006115           JUNCTION      0.08    23.20     0  02:58      0.0129         1.4       2.738
  WS02006116           JUNCTION      0.24    23.40     0  02:58      0.0347        1.39       2.454
  WS02006183           JUNCTION      0.00     0.00     0  00:00           0           0       0.000 ltr
  WS02006228           JUNCTION     11.41    17.96     0  03:00       0.707        1.13       1.596
  WS02006229           JUNCTION      0.13    17.55     0  00:41      0.0193       0.502       3.236
  WS02006230           JUNCTION      0.07    17.66     0  00:40      0.0111       0.509       5.254
  WS02006231           JUNCTION      0.13    17.59     0  00:40      0.0197       0.514       2.951
  WS02006232           JUNCTION      4.44    17.38     0  00:40       0.255       0.639       2.371
  WS02006234           JUNCTION      0.14    17.06     0  00:39      0.0208       0.528       2.634
  WS02006235           JUNCTION      0.14    16.73     0  00:39      0.0215       0.527       1.500
  WS02006238           JUNCTION      0.15    16.59     0  00:39      0.0226        0.53       1.894
  WS02006239           JUNCTION      0.11    16.75     0  00:38      0.0167       0.534       2.873
  WS02006242           JUNCTION      0.08    17.59     0  00:37      0.0124       0.548       3.387
  WS02006240           JUNCTION      0.06    17.00     0  00:38     0.00952       0.537       3.102
  WS02006243           JUNCTION      0.17    18.23     0  00:37      0.0259       0.562       3.121
  WS02006245           JUNCTION      0.07    18.11     0  00:37      0.0109       0.556       2.417
  WS02006247           JUNCTION      4.36    18.24     0  00:37         0.3       0.785       1.460
  WS02006248           JUNCTION      0.12    46.48     0  02:50      0.0185        2.27       0.463
  WS02006249           JUNCTION      0.19    41.96     0  02:50      0.0275        1.81       0.798
  WS02006251           JUNCTION      1.93    41.78     0  02:50       0.126        1.79       0.779
  WS02006253           JUNCTION      0.11    39.87     0  02:50      0.0166        1.67       0.421
  WS02618401           JUNCTION      0.00     0.00     0  00:00           0           0       0.000 ltr
  WSA1649              JUNCTION      0.00     0.00     0  00:00           0           0       0.000 ltr
  outfall-5            OUTFALL       0.00    46.53     0  02:50           0           2       0.000
  outfall-14           OUTFALL       0.00    23.46     0  02:58           0        1.31       0.000
  outfall-16           OUTFALL       0.00     0.00     0  00:00           0           0       0.000 ltr
  CC-storage           STORAGE      19.81    19.81     0  02:26        1.31        1.31     -17.898
  
  
  **********************
  Node Surcharge Summary
  **********************
  
  Surcharging occurs when water rises above the top of the highest conduit.
  ---------------------------------------------------------------------
                                               Max. Height   Min. Depth
                                   Hours       Above Crown    Below Rim
  Node                 Type      Surcharged         Meters       Meters
  ---------------------------------------------------------------------
  WS01000070           JUNCTION        3.83          0.000        0.000
  WS01000323           JUNCTION        3.83          0.000        0.000
  WS01000533           JUNCTION        3.83          0.000        2.147
  WS01005172           JUNCTION        3.83          0.000        0.000
  WS01005181           JUNCTION        3.83          0.000        0.000
  WS01009841           JUNCTION        3.83          0.000        0.000
  WS02000078           JUNCTION        3.83          0.000        0.000
  WS02000112           JUNCTION        3.83          0.000        0.000
  WS02000136           JUNCTION        3.83          0.000        0.000
  WS02004053           JUNCTION        3.83          0.000        0.000
  WS02005192           JUNCTION        0.46          0.480        2.339
  WS02005193           JUNCTION        0.72          0.349        2.268
  WS02005196           JUNCTION        0.56          0.490        2.216
  WS02006109           JUNCTION        2.52          0.980        0.858
  WS02006110           JUNCTION        2.52          0.996        0.849
  WS02006111           JUNCTION        2.52          0.996        0.881
  WS02006112           JUNCTION        2.86          1.247        0.436
  WS02006113           JUNCTION        2.52          0.996        0.937
  WS02006115           JUNCTION        2.92          1.271        1.028
  WS02006116           JUNCTION        2.95          1.320        1.030
  WS02006183           JUNCTION        3.83          0.000        0.000
  WS02006228           JUNCTION        2.52          0.956        1.275
  WS02006229           JUNCTION        2.51          0.915        1.539
  WS02006231           JUNCTION        2.50          0.805        0.738
  WS02006232           JUNCTION        2.43          0.677        0.812
  WS02006234           JUNCTION        2.40          0.549        0.708
  WS02006235           JUNCTION        2.39          0.540        0.754
  WS02006238           JUNCTION        2.39          0.530        0.904
  WS02006239           JUNCTION        2.38          0.500        0.829
  WS02006242           JUNCTION        2.35          0.411        0.438
  WS02006240           JUNCTION        2.35          0.421        0.982
  WS02006243           JUNCTION        2.26          0.293        0.487
  WS02006245           JUNCTION        2.24          0.225        0.630
  WS02006247           JUNCTION        2.23          0.206        0.554
  WS02006249           JUNCTION        1.45          0.219        0.169
  WS02006251           JUNCTION        0.90          0.389        1.121
  WS02006253           JUNCTION        0.31          0.335        2.119
  WS02618401           JUNCTION        3.83          0.000        0.000
  WSA1649              JUNCTION        3.83          0.000        0.000
  
  
  *********************
  Node Flooding Summary
  *********************
  
  Flooding refers to all water that overflows a node, whether it ponds or not.
  --------------------------------------------------------------------------
                                                             Total   Maximum
                                 Maximum   Time of Max       Flood    Ponded
                        Hours       Rate    Occurrence      Volume     Depth
  Node                 Flooded       MLD   days hr:min    10^6 ltr    Meters
  --------------------------------------------------------------------------
  CC-storage              0.27     19.69      0  02:29       0.177     0.000
  
  
  **********************
  Storage Volume Summary
  **********************
  
  --------------------------------------------------------------------------------------------------
                         Average     Avg  Evap Exfil       Maximum     Max    Time of Max    Maximum
                          Volume    Pcnt  Pcnt  Pcnt        Volume    Pcnt     Occurrence    Outflow
  Storage Unit           1000 m3    Full  Loss  Loss       1000 m3    Full    days hr:min        MLD
  --------------------------------------------------------------------------------------------------
  CC-storage               0.061      38     0     0         0.159     100       0  02:29      34.56
  
  
  ***********************
  Outfall Loading Summary
  ***********************
  
  ---------------------------------------------------------------------------------------------------------------------------------
                         Flow       Avg       Max       Total         Total         Total         Total         Total         Total
                         Freq      Flow      Flow      Volume           COD         NH3-N            TN            TP            SS
  Outfall Node           Pcnt       MLD       MLD    10^6 ltr            kg            kg            kg            kg            kg
  ---------------------------------------------------------------------------------------------------------------------------------
  outfall-5             90.90     23.06     46.53       2.001       270.644         0.000         0.000         0.000         0.000
  outfall-14            90.93     14.81     23.46       1.308       234.500         0.000         0.000         0.000         0.000
  outfall-16             0.00      0.00      0.00       0.000         0.000         0.000         0.000         0.000         0.000
  ---------------------------------------------------------------------------------------------------------------------------------
  System                60.61     37.88     68.08       3.309       505.143         0.000         0.000         0.000         0.000
  
  
  ********************
  Link Flow Summary
  ********************
  
  -----------------------------------------------------------------------------
                                 Maximum  Time of Max   Maximum    Max/    Max/
                                  |Flow|   Occurrence   |Veloc|    Full    Full
  Link                 Type          MLD  days hr:min     m/sec    Flow   Depth
  -----------------------------------------------------------------------------
  WSL2038              CONDUIT      6.34     0  02:23      0.42    0.32    1.00
  WSL2039              CONDUIT     11.21     0  02:02      0.84    0.58    1.00
  WSL2041              CONDUIT      9.36     0  02:02      0.63    0.46    1.00
  WSL2294              CONDUIT     18.03     0  03:00      0.96    0.61    1.00
  WSL2295              CONDUIT     18.10     0  03:00      1.04    0.81    1.00
  WSL2296              CONDUIT     22.96     0  02:58      0.76    0.13    1.00
  WSL2297              CONDUIT     23.12     0  02:58      0.35    0.44    1.00
  WSL2298              CONDUIT     22.75     0  02:58      1.77    1.05    1.00
  WSL2301              CONDUIT     23.20     0  02:58      0.34    0.21    1.00
  WSL2302              CONDUIT     23.40     0  02:58      0.34    0.29    1.00
  WSL2441              CONDUIT     17.96     0  03:00      1.00    0.46    1.00
  WSL2442              CONDUIT     17.42     0  00:41      1.20    0.45    1.00
  WSL2443              CONDUIT     17.59     0  00:40      1.34    0.27    1.00
  WSL2444              CONDUIT     17.46     0  00:40      1.55    0.28    1.00
  WSL2446              CONDUIT     17.30     0  00:40      1.54    0.30    1.00
  WSL2447              CONDUIT     16.92     0  00:39      1.31    0.87    1.00
  WSL2448              CONDUIT     16.59     0  00:39      1.14    0.47    1.00
  WSL2449              CONDUIT     16.45     0  00:39      1.07    0.57    1.00
  WSL2450              CONDUIT     16.64     0  00:38      1.12    0.35    1.00
  WSL2451              CONDUIT     16.94     0  00:38      1.10    1.10    1.00
  WSL2452              CONDUIT     17.51     0  00:37      1.16    0.33    1.00
  WSL2454              CONDUIT     18.06     0  00:37      1.31    0.42    1.00
  WSL2478              CONDUIT     18.04     0  00:37      1.20    0.64    1.00
  WSL2479              CONDUIT     18.08     0  00:37      1.22    0.34    1.00
  WSL2480              CONDUIT     41.98     0  02:50      1.26    1.94    1.00
  WSL2482              CONDUIT     41.80     0  02:50      1.26    1.09    1.00
  WSL2484              CONDUIT     39.99     0  02:50      1.38    0.56    1.00
  WSL2493              CONDUIT     16.88     0  00:41      1.03    0.28    1.00
  8                    CONDUIT     46.53     0  02:50      7.34    0.61    0.57
  19                   CONDUIT      0.00     0  00:00      0.00    0.00    0.00
  17                   CONDUIT     23.46     0  02:58      6.22    0.30    0.38
  CC-Pump-1            PUMP        17.28     0  02:00              1.00
  CC-Pump-2            PUMP        17.28     0  02:00              1.00
  
  
  ***************************
  Flow Classification Summary
  ***************************
  
  -------------------------------------------------------------------------------------
                      Adjusted    ---------- Fraction of Time in Flow Class ---------- 
                       /Actual         Up    Down  Sub   Sup   Up    Down  Norm  Inlet 
  Conduit               Length    Dry  Dry   Dry   Crit  Crit  Crit  Crit  Ltd   Ctrl  
  -------------------------------------------------------------------------------------
  WSL2038                 1.00   0.00  0.00  0.00  1.00  0.00  0.00  0.00  0.01  0.00
  WSL2039                 1.00   0.00  0.00  0.00  1.00  0.00  0.00  0.00  0.01  0.00
  WSL2041                 1.00   0.00  0.00  0.00  1.00  0.00  0.00  0.00  0.22  0.00
  WSL2294                 1.00   0.00  0.00  0.00  1.00  0.00  0.00  0.00  0.00  0.00
  WSL2295                 1.00   0.00  0.00  0.00  1.00  0.00  0.00  0.00  0.00  0.00
  WSL2296                 1.00   0.00  0.00  0.00  1.00  0.00  0.00  0.00  0.18  0.00
  WSL2297                 1.00   0.00  0.00  0.00  1.00  0.00  0.00  0.00  0.00  0.00
  WSL2298                 1.00   0.00  0.00  0.00  0.98  0.02  0.00  0.00  0.00  0.00
  WSL2301                 1.00   0.00  0.00  0.00  1.00  0.00  0.00  0.00  0.04  0.00
  WSL2302                 1.00   0.00  0.00  0.00  1.00  0.00  0.00  0.00  0.01  0.00
  WSL2441                 1.00   0.00  0.00  0.00  1.00  0.00  0.00  0.00  0.00  0.00
  WSL2442                 1.00   0.00  0.00  0.00  1.00  0.00  0.00  0.00  0.09  0.00
  WSL2443                 1.00   0.00  0.00  0.00  1.00  0.00  0.00  0.00  0.19  0.00
  WSL2444                 1.00   0.00  0.00  0.00  0.95  0.05  0.00  0.00  0.14  0.00
  WSL2446                 1.00   0.00  0.00  0.00  0.95  0.05  0.00  0.00  0.13  0.00
  WSL2447                 1.00   0.00  0.00  0.00  1.00  0.00  0.00  0.00  0.00  0.00
  WSL2448                 1.00   0.00  0.00  0.00  1.00  0.00  0.00  0.00  0.01  0.00
  WSL2449                 1.00   0.00  0.00  0.00  1.00  0.00  0.00  0.00  0.04  0.00
  WSL2450                 1.00   0.00  0.00  0.00  1.00  0.00  0.00  0.00  0.25  0.00
  WSL2451                 1.00   0.00  0.00  0.00  1.00  0.00  0.00  0.00  0.00  0.00
  WSL2452                 1.00   0.00  0.00  0.00  1.00  0.00  0.00  0.00  0.29  0.00
  WSL2454                 1.00   0.00  0.00  0.00  1.00  0.00  0.00  0.00  0.05  0.00
  WSL2478                 1.00   0.00  0.00  0.00  1.00  0.00  0.00  0.00  0.00  0.00
  WSL2479                 1.00   0.00  0.00  0.00  1.00  0.00  0.00  0.00  0.24  0.00
  WSL2480                 1.00   0.00  0.00  0.00  1.00  0.00  0.00  0.00  0.00  0.00
  WSL2482                 1.00   0.00  0.00  0.00  1.00  0.00  0.00  0.00  0.26  0.00
  WSL2484                 1.00   0.00  0.00  0.00  1.00  0.00  0.00  0.00  0.23  0.00
  WSL2493                 1.00   0.00  0.00  0.00  1.00  0.00  0.00  0.00  0.05  0.00
  8                       1.00   0.09  0.00  0.00  0.00  0.91  0.00  0.00  0.10  0.00
  19                      1.00   1.00  0.00  0.00  0.00  0.00  0.00  0.00  0.00  0.00
  17                      1.00   0.09  0.00  0.00  0.00  0.91  0.00  0.00  0.02  0.00
  
  
  *************************
  Conduit Surcharge Summary
  *************************
  
  ----------------------------------------------------------------------------
                                                           Hours        Hours 
                         --------- Hours Full --------   Above Full   Capacity
  Conduit                Both Ends  Upstream  Dnstream   Normal Flow   Limited
  ----------------------------------------------------------------------------
  WSL2038                     0.46      0.46      0.55      0.01         0.01
  WSL2039                     0.72      0.72      0.81      0.01         0.01
  WSL2041                     0.55      0.55      0.72      0.01         0.01
  WSL2294                     2.52      2.52      2.52      0.01         0.01
  WSL2295                     2.52      2.52      2.52      0.01         0.02
  WSL2296                     2.52      2.52      3.06      0.01         0.01
  WSL2297                     2.86      2.86      2.92      0.01         0.01
  WSL2298                     2.52      2.52      2.52      0.18         0.22
  WSL2301                     2.92      2.92      2.95      0.01         0.01
  WSL2302                     2.95      2.95      3.00      0.01         0.01
  WSL2441                     2.52      2.52      2.52      0.01         0.01
  WSL2442                     2.51      2.51      2.52      0.01         0.01
  WSL2443                     2.50      2.50      2.51      0.01         0.01
  WSL2444                     2.43      2.43      2.50      0.01         0.01
  WSL2446                     2.40      2.40      2.43      0.01         0.01
  WSL2447                     2.39      2.39      2.40      0.01         0.01
  WSL2448                     2.39      2.39      2.39      0.01         0.01
  WSL2449                     2.38      2.38      2.39      0.01         0.01
  WSL2450                     2.35      2.35      2.38      0.01         0.01
  WSL2451                     2.35      2.35      2.35      0.02         0.01
  WSL2452                     2.26      2.26      2.35      0.01         0.01
  WSL2454                     2.24      2.24      2.26      0.01         0.01
  WSL2478                     2.23      2.23      2.24      0.01         0.01
  WSL2479                     1.64      1.64      2.23      0.01         0.01
  WSL2480                     1.45      1.45      1.64      0.87         0.87
  WSL2482                     0.90      0.90      1.45      0.22         0.24
  WSL2484                     0.31      0.31      0.90      0.01         0.01
  WSL2493                     2.51      2.51      2.52      0.01         0.01
  
  
  ***************
  Pumping Summary
  ***************
  
  ---------------------------------------------------------------------------------------------------------
                                                  Min       Avg       Max     Total     Power    % Time Off
                        Percent   Number of      Flow      Flow      Flow    Volume     Usage    Pump Curve
  Pump                 Utilized   Start-Ups       MLD       MLD       MLD  10^6 ltr     Kw-hr    Low   High
  ---------------------------------------------------------------------------------------------------------
  CC-Pump-1               47.81           4      0.00     10.65     17.28     0.630      6.86    0.0    0.0
  CC-Pump-2               47.81           4      0.00     10.65     17.28     0.630      6.86    0.0    0.0
  
  
  ***************************
  Link Pollutant Load Summary
  ***************************
  
  ------------------------------------------------------------------------------------------
                                 COD         NH3-N            TN            TP            SS
  Link                            kg            kg            kg            kg            kg
  ------------------------------------------------------------------------------------------
  WSL2038                     66.327         0.000         0.000         0.000         0.000
  WSL2039                     74.428         0.000         0.000         0.000         0.000
  WSL2041                     70.649         0.000         0.000         0.000         0.000
  WSL2294                    257.378         0.000         0.000         0.000         0.000
  WSL2295                    252.205         0.000         0.000         0.000         0.000
  WSL2296                    253.150         0.000         0.000         0.000         0.000
  WSL2297                    248.897         0.000         0.000         0.000         0.000
  WSL2298                    250.499         0.000         0.000         0.000         0.000
  WSL2301                    244.840         0.000         0.000         0.000         0.000
  WSL2302                    241.682         0.000         0.000         0.000         0.000
  WSL2441                    261.217         0.000         0.000         0.000         0.000
  WSL2442                     50.320         0.000         0.000         0.000         0.000
  WSL2443                     45.426         0.000         0.000         0.000         0.000
  WSL2444                     42.279         0.000         0.000         0.000         0.000
  WSL2446                     44.849         0.000         0.000         0.000         0.000
  WSL2447                     49.475         0.000         0.000         0.000         0.000
  WSL2448                     50.749         0.000         0.000         0.000         0.000
  WSL2449                     53.145         0.000         0.000         0.000         0.000
  WSL2450                     55.504         0.000         0.000         0.000         0.000
  WSL2451                     56.654         0.000         0.000         0.000         0.000
  WSL2452                     58.066         0.000         0.000         0.000         0.000
  WSL2454                     57.791         0.000         0.000         0.000         0.000
  WSL2478                     59.148         0.000         0.000         0.000         0.000
  WSL2479                     92.390         0.000         0.000         0.000         0.000
  WSL2480                    226.455         0.000         0.000         0.000         0.000
  WSL2482                    223.029         0.000         0.000         0.000         0.000
  WSL2484                    188.151         0.000         0.000         0.000         0.000
  WSL2493                     60.276         0.000         0.000         0.000         0.000
  8                          270.644         0.000         0.000         0.000         0.000
  19                           0.000         0.000         0.000         0.000         0.000
  17                         234.500         0.000         0.000         0.000         0.000
  CC-Pump-1                   57.187         0.000         0.000         0.000         0.000
  CC-Pump-2                   57.187         0.000         0.000         0.000         0.000
  

  Analysis begun on:  Thu Aug 15 18:10:07 2019
  Analysis ended on:  Thu Aug 15 18:10:07 2019
  Total elapsed time: < 1 sec