
  EPA STORM WATER MANAGEMENT MODEL - VERSION 5.1 (Build 5.2.0.dev5)
  --------------------------------------------------------------

  
  *********************************************************
  NOTE: The summary statistics displayed in this report are
  based on results found at every computational time step,  
  not just on results from each reporting time step.
  *********************************************************
  
  ****************
  Analysis Options
  ****************
  Flow Units ............... MLD
  Process Models:
    Rainfall/Runoff ........ YES
    RDII ................... NO
    Snowmelt ............... NO
    Groundwater ............ NO
    Flow Routing ........... YES
    Ponding Allowed ........ NO
    Water Quality .......... YES
  Infiltration Method ...... GREEN_AMPT
  Flow Routing Method ...... DYNWAVE
  Surcharge Method ......... EXTRAN
  Starting Date ............ 08/28/2015 08:00:00
  Ending Date .............. 08/28/2015 11:50:00
  Antecedent Dry Days ...... 4.0
  Report Time Step ......... 00:01:00
  Wet Time Step ............ 00:01:00
  Dry Time Step ............ 00:01:00
  Routing Time Step ........ 5.00 sec
  Variable Time Step ....... YES
  Maximum Trials ........... 8
  Number of Threads ........ 1
  Head Tolerance ........... 0.001500 m
  
  
  **************************        Volume         Depth
  Runoff Quantity Continuity     hectare-m            mm
  **************************     ---------       -------
  Total Precipitation ......         1.105        17.869
  Evaporation Loss .........         0.000         0.000
  Infiltration Loss ........         0.470         7.602
  Surface Runoff ...........         0.231         3.742
  Final Storage ............         0.404         6.526
  Continuity Error (%) .....        -0.007
  
  
  **************************           COD         NH3-N            TN            TP            SS
  Runoff Quality Continuity             kg            kg            kg            kg            kg
  **************************    ----------    ----------    ----------    ----------    ----------
  Initial Buildup ..........      2504.640         0.000         0.000         0.000         0.000
  Surface Buildup ..........        19.924         0.000         0.000         0.000         0.000
  Wet Deposition ...........         0.000         0.000         0.000         0.000         0.000
  Sweeping Removal .........         0.000         0.000         0.000         0.000         0.000
  Infiltration Loss ........        80.779         0.000         0.000         0.000         0.000
  BMP Removal ..............         0.000         0.000         0.000         0.000         0.000
  Surface Runoff ...........       367.233         0.000         0.000         0.000         0.000
  Remaining Buildup ........      2074.745         0.000         0.000         0.000         0.000
  Continuity Error (%) .....         0.072         0.000         0.000         0.000         0.000
  
  
  **************************        Volume        Volume
  Flow Routing Continuity        hectare-m      10^6 ltr
  **************************     ---------     ---------
  Dry Weather Inflow .......         0.000         0.000
  Wet Weather Inflow .......         0.231         2.309
  Groundwater Inflow .......         0.000         0.000
  RDII Inflow ..............         0.000         0.000
  External Inflow ..........         0.082         0.822
  External Outflow .........         0.282         2.824
  Flooding Loss ............         0.011         0.105
  Evaporation Loss .........         0.000         0.000
  Exfiltration Loss ........         0.000         0.000
  Initial Stored Volume ....         0.000         0.000
  Final Stored Volume ......         0.046         0.465
  Continuity Error (%) .....        -8.401
  
  
  **************************           COD         NH3-N            TN            TP            SS
  Quality Routing Continuity            kg            kg            kg            kg            kg
  **************************    ----------    ----------    ----------    ----------    ----------
  Dry Weather Inflow .......         0.000         0.000         0.000         0.000         0.000
  Wet Weather Inflow .......       366.310         0.000         0.000         0.000         0.000
  Groundwater Inflow .......         0.000         0.000         0.000         0.000         0.000
  RDII Inflow ..............         0.000         0.000         0.000         0.000         0.000
  External Inflow ..........       137.264         0.000         0.000         0.000         0.000
  External Outflow .........       360.953         0.000         0.000         0.000         0.000
  Flooding Loss ............        21.975         0.000         0.000         0.000         0.000
  Exfiltration Loss ........         0.000         0.000         0.000         0.000         0.000
  Mass Reacted .............         0.000         0.000         0.000         0.000         0.000
  Initial Stored Mass ......         0.000         0.000         0.000         0.000         0.000
  Final Stored Mass ........        71.978         0.000         0.000         0.000         0.000
  Continuity Error (%) .....         9.665         0.000         0.000         0.000         0.000
  
  
  *************************
  Highest Continuity Errors
  *************************
  Node WS02006230 (4.96%)
  Node WS02006242 (3.67%)
  Node WS02006240 (3.34%)
  Node WS02006243 (3.33%)
  Node WS02006239 (3.13%)
  
  
  ***************************
  Time-Step Critical Elements
  ***************************
  Link 8 (83.62%)
  Link WSL2448 (7.23%)
  Link 17 (7.17%)
  
  
  ********************************
  Highest Flow Instability Indexes
  ********************************
  Link WSL2301 (3)
  Link WSL2302 (3)
  Link WSL2297 (2)
  Link WSL2296 (2)
  Link WSL2493 (2)
  
  
  *************************
  Routing Time Step Summary
  *************************
  Minimum Time Step           :     0.12 sec
  Average Time Step           :     0.91 sec
  Maximum Time Step           :     5.00 sec
  Percent in Steady State     :    -0.00
  Average Iterations per Step :     2.14
  Percent Not Converging      :     1.13
  
  
  ***************************
  Subcatchment Runoff Summary
  ***************************
  
  ------------------------------------------------------------------------------------------------------------------------------
                            Total      Total      Total      Total     Imperv       Perv      Total       Total     Peak  Runoff
                           Precip      Runon       Evap      Infil     Runoff     Runoff     Runoff      Runoff   Runoff   Coeff
  Subcatchment                 mm         mm         mm         mm         mm         mm         mm    10^6 ltr      MLD
  ------------------------------------------------------------------------------------------------------------------------------
  1                         17.87      18.74       0.00       8.87       8.63       7.37      16.00        0.19     4.54   0.437
  2                         17.87       0.00       0.00       7.26       4.23       1.45       5.67        0.19     5.13   0.317
  3                         17.87       0.00       0.00       7.29       4.16       1.21       5.37        0.27     7.22   0.301
  35                        17.87       0.00       0.00       7.25       4.24       1.51       5.75        0.17     4.70   0.322
  36                        17.87      11.08       0.00       8.57       6.59       2.83       9.42        0.56    13.17   0.325
  40                        17.87       3.02       0.00       7.65       4.88       1.85       6.74        0.26     6.80   0.322
  41                        17.87       0.00       0.00       7.20       4.29       1.81       6.10        0.12     3.26   0.342
  42                        17.87       0.00       0.00       7.22       4.28       1.70       5.97        0.14     3.72   0.334
  43                        17.87       0.00       0.00       6.96       4.41       3.29       7.69        0.03     0.83   0.430
  44                        17.87     156.73       0.00      13.92      42.51      86.84     129.35        0.48    10.19   0.741
  45                        17.87       0.00       0.00       7.13       4.35       2.30       6.65        0.07     1.94   0.372
  46                        17.87       9.38       0.00       8.26       6.42       3.81      10.23        0.22     5.48   0.375
  47                        17.87       0.00       0.00       7.14       4.34       2.24       6.58        0.07     2.07   0.368
  48                        17.87       4.61       0.00       7.73       5.38       3.05       8.42        0.13     3.52   0.375
  55                        17.87       6.90       0.00       7.85       5.98       4.55      10.53        0.09     2.33   0.425
  56                        17.87      10.31       0.00       8.34       6.63       4.03      10.66        0.23     5.65   0.378
  57                        17.87       0.00       0.00       7.29       4.17       1.22       5.39        0.27     7.10   0.302
  59                        17.87       0.00       0.00       7.10       4.36       2.48       6.84        0.06     1.65   0.383
  60                        17.87      14.99       0.00       8.46       7.95       8.46      16.42        0.09     2.19   0.500
  61                        17.87       0.00       0.00       7.36       3.87       0.69       4.56        0.82    20.43   0.255
  64                        17.87       0.00       0.00       7.15       4.34       2.18       6.51        0.08     2.20   0.365
  
  
  ****************************
  Subcatchment Washoff Summary
  ****************************
  
  ------------------------------------------------------------------------------------------
                                 COD         NH3-N            TN            TP            SS
  Subcatchment                    kg            kg            kg            kg            kg
  ------------------------------------------------------------------------------------------
  1                           28.938         0.000         0.000         0.000         0.000
  2                            0.000         0.000         0.000         0.000         0.000
  3                            0.000         0.000         0.000         0.000         0.000
  35                          30.055         0.000         0.000         0.000         0.000
  36                         171.000         0.000         0.000         0.000         0.000
  40                          56.324         0.000         0.000         0.000         0.000
  41                          21.341         0.000         0.000         0.000         0.000
  42                          24.151         0.000         0.000         0.000         0.000
  43                           5.928         0.000         0.000         0.000         0.000
  44                         149.650         0.000         0.000         0.000         0.000
  45                          13.175         0.000         0.000         0.000         0.000
  46                          67.450         0.000         0.000         0.000         0.000
  47                          13.945         0.000         0.000         0.000         0.000
  48                          33.716         0.000         0.000         0.000         0.000
  55                          25.440         0.000         0.000         0.000         0.000
  56                          72.508         0.000         0.000         0.000         0.000
  57                          44.255         0.000         0.000         0.000         0.000
  59                          11.286         0.000         0.000         0.000         0.000
  60                          27.641         0.000         0.000         0.000         0.000
  61                         118.949         0.000         0.000         0.000         0.000
  64                          14.796         0.000         0.000         0.000         0.000
  ------------------------------------------------------------------------------------------
  System                     930.549         0.000         0.000         0.000         0.000
  
  
  ******************
  Node Depth Summary
  ******************
  
  ---------------------------------------------------------------------------------
                                 Average  Maximum  Maximum  Time of Max    Reported
                                   Depth    Depth      HGL   Occurrence   Max Depth
  Node                 Type       Meters   Meters   Meters  days hr:min      Meters
  ---------------------------------------------------------------------------------
  WS01000070           JUNCTION     0.00     0.00     0.00     0  00:00        0.00
  WS01000323           JUNCTION     0.00     0.00     0.00     0  00:00        0.00
  WS01000533           JUNCTION     0.00     0.00     6.86     0  00:00        0.00
  WS01005172           JUNCTION     0.00     0.00     0.00     0  00:00        0.00
  WS01005181           JUNCTION     0.00     0.00     0.00     0  00:00        0.00
  WS01009841           JUNCTION     0.00     0.00     0.00     0  00:00        0.00
  WS02000078           JUNCTION     0.00     0.00     0.00     0  00:00        0.00
  WS02000112           JUNCTION     0.00     0.00     0.00     0  00:00        0.00
  WS02000136           JUNCTION     0.00     0.00     0.00     0  00:00        0.00
  WS02004053           JUNCTION     0.00     0.00     0.00     0  00:00        0.00
  WS02004401           JUNCTION     2.18     2.34     8.34     0  02:52        2.34
  WS02005192           JUNCTION     0.46     1.20     9.07     0  02:44        0.69
  WS02005193           JUNCTION     0.50     0.92     8.74     0  02:44        0.74
  WS02005196           JUNCTION     0.47     1.05     8.90     0  02:44        0.71
  WS02006109           JUNCTION     1.59     1.76     8.38     0  02:52        1.76
  WS02006110           JUNCTION     1.60     1.77     8.37     0  02:52        1.77
  WS02006111           JUNCTION     1.62     1.78     8.36     0  02:52        1.78
  WS02006112           JUNCTION     2.06     2.23     8.35     0  02:52        2.23
  WS02006113           JUNCTION     1.61     1.78     8.37     0  02:52        1.78
  WS02006115           JUNCTION     2.08     2.25     8.35     0  02:52        2.25
  WS02006116           JUNCTION     2.14     2.31     8.35     0  02:52        2.31
  WS02006183           JUNCTION     0.00     0.00     0.00     0  00:00        0.00
  WS02006228           JUNCTION     1.56     1.73     8.38     0  02:52        1.73
  WS02006229           JUNCTION     1.52     1.69     8.38     0  02:52        1.69
  WS02006230           JUNCTION     1.46     1.64     8.39     0  02:50        1.64
  WS02006231           JUNCTION     1.32     1.49     8.39     0  02:50        1.49
  WS02006232           JUNCTION     1.20     1.36     8.39     0  02:50        1.36
  WS02006234           JUNCTION     1.08     1.23     8.39     0  02:50        1.23
  WS02006235           JUNCTION     1.07     1.22     8.39     0  02:50        1.22
  WS02006238           JUNCTION     1.06     1.21     8.39     0  02:50        1.21
  WS02006239           JUNCTION     1.03     1.18     8.39     0  02:50        1.18
  WS02006242           JUNCTION     0.95     1.11     8.41     0  01:36        1.09
  WS02006240           JUNCTION     0.96     1.10     8.39     0  02:50        1.10
  WS02006243           JUNCTION     0.84     1.02     8.44     0  01:36        0.97
  WS02006245           JUNCTION     0.77     0.93     8.42     0  01:36        0.90
  WS02006247           JUNCTION     0.76     0.88     8.39     0  02:40        0.88
  WS02006248           JUNCTION     0.68     0.80     8.39     0  02:40        0.80
  WS02006249           JUNCTION     0.68     0.84     8.44     0  02:44        0.83
  WS02006251           JUNCTION     0.63     0.87     8.54     0  02:44        0.87
  WS02006253           JUNCTION     0.52     0.77     8.57     0  02:44        0.77
  WS02618401           JUNCTION     0.00     0.00     0.00     0  00:00        0.00
  WSA1649              JUNCTION     0.00     0.00     0.00     0  00:00        0.00
  outfall-5            OUTFALL      0.12     0.20     7.87     0  02:40        0.20
  outfall-14           OUTFALL      0.10     0.14     7.80     0  02:52        0.14
  outfall-16           OUTFALL      0.00     0.00     8.39     0  00:00        0.00
  CC-storage           STORAGE      1.55     5.63     8.81     0  03:09        5.63
  
  
  *******************
  Node Inflow Summary
  *******************
  
  -------------------------------------------------------------------------------------------------
                                  Maximum  Maximum                  Lateral       Total        Flow
                                  Lateral    Total  Time of Max      Inflow      Inflow     Balance
                                   Inflow   Inflow   Occurrence      Volume      Volume       Error
  Node                 Type           MLD      MLD  days hr:min    10^6 ltr    10^6 ltr     Percent
  -------------------------------------------------------------------------------------------------
  WS01000070           JUNCTION      0.00     0.00     0  00:00           0           0       0.000 ltr
  WS01000323           JUNCTION      0.00     0.00     0  00:00           0           0       0.000 ltr
  WS01000533           JUNCTION      0.00     0.00     0  00:00           0           0       0.000 ltr
  WS01005172           JUNCTION      0.00     0.00     0  00:00           0           0       0.000 ltr
  WS01005181           JUNCTION      0.00     0.00     0  00:00           0           0       0.000 ltr
  WS01009841           JUNCTION      0.00     0.00     0  00:00           0           0       0.000 ltr
  WS02000078           JUNCTION      0.00     0.00     0  00:00           0           0       0.000 ltr
  WS02000112           JUNCTION      0.00     0.00     0  00:00           0           0       0.000 ltr
  WS02000136           JUNCTION      0.00     0.00     0  00:00           0           0       0.000 ltr
  WS02004053           JUNCTION      0.00     0.00     0  00:00           0           0       0.000 ltr
  WS02004401           JUNCTION      0.05    21.26     0  02:52      0.0086        1.15       2.542
  WS02005192           JUNCTION      7.19     7.19     0  03:01       0.286       0.288       0.946
  WS02005193           JUNCTION      0.09    10.89     0  03:35       0.014       0.341       2.280
  WS02005196           JUNCTION      0.12     7.21     0  03:00      0.0183       0.315       2.254
  WS02006109           JUNCTION      0.08    19.46     0  00:52      0.0129       0.942       2.623
  WS02006110           JUNCTION      0.08    17.77     0  00:52      0.0126       0.936       2.663
  WS02006111           JUNCTION      0.24    20.76     0  02:52      0.0352        1.21       1.717
  WS02006112           JUNCTION      0.18    20.92     0  02:52      0.0263        1.21       2.707
  WS02006113           JUNCTION      7.36    20.55     0  02:52       0.299         1.2       1.975
  WS02006115           JUNCTION      0.08    20.99     0  02:52      0.0129        1.19       3.199
  WS02006116           JUNCTION      0.24    21.20     0  02:52      0.0347        1.19       2.892
  WS02006183           JUNCTION      0.00     0.00     0  00:00           0           0       0.000 ltr
  WS02006228           JUNCTION     10.34    20.55     0  00:51       0.504       0.971       1.864
  WS02006229           JUNCTION      0.13    20.76     0  00:51      0.0193       0.511       3.190
  WS02006230           JUNCTION      0.07    21.09     0  00:51      0.0111       0.516       5.222
  WS02006231           JUNCTION      0.13    20.86     0  00:50      0.0197       0.516       2.945
  WS02006232           JUNCTION      5.21    20.62     0  00:50       0.204       0.591       2.632
  WS02006234           JUNCTION      0.14    20.22     0  00:50      0.0208       0.485       2.905
  WS02006235           JUNCTION      0.14    19.90     0  00:50      0.0215       0.481       1.612
  WS02006238           JUNCTION      0.15    19.85     0  00:49      0.0226        0.48       2.102
  WS02006239           JUNCTION      0.11    19.85     0  00:49      0.0167       0.481       3.232
  WS02006242           JUNCTION      0.08    20.76     0  00:48      0.0124       0.497       3.812
  WS02006240           JUNCTION      0.06    20.10     0  00:49     0.00952       0.486       3.456
  WS02006243           JUNCTION      0.17    21.39     0  00:48      0.0259       0.508       3.441
  WS02006245           JUNCTION      0.07    21.43     0  00:48      0.0109       0.502       2.659
  WS02006247           JUNCTION      4.67    21.59     0  00:47       0.217       0.627       1.833
  WS02006248           JUNCTION      0.12    40.34     0  02:40      0.0185        1.99       0.543
  WS02006249           JUNCTION      0.19    40.22     0  02:40      0.0275        1.71       0.864
  WS02006251           JUNCTION      2.39    40.03     0  02:40      0.0966        1.69       0.866
  WS02006253           JUNCTION      0.11    38.78     0  02:42      0.0166        1.63       0.460
  WS02618401           JUNCTION      0.00     0.00     0  00:00           0           0       0.000 ltr
  WSA1649              JUNCTION      0.00     0.00     0  00:00           0           0       0.000 ltr
  outfall-5            OUTFALL       0.00    39.17     0  02:40           0        1.72       0.000
  outfall-14           OUTFALL       0.00    21.26     0  02:52           0        1.11       0.000
  outfall-16           OUTFALL       0.00     0.00     0  00:00           0           0       0.000 ltr
  CC-storage           STORAGE      21.89    21.89     0  03:01         1.1         1.1     -21.304
  
  
  **********************
  Node Surcharge Summary
  **********************
  
  Surcharging occurs when water rises above the top of the highest conduit.
  ---------------------------------------------------------------------
                                               Max. Height   Min. Depth
                                   Hours       Above Crown    Below Rim
  Node                 Type      Surcharged         Meters       Meters
  ---------------------------------------------------------------------
  WS01000070           JUNCTION        3.83          0.000        0.000
  WS01000323           JUNCTION        3.83          0.000        0.000
  WS01000533           JUNCTION        3.83          0.000        2.147
  WS01005172           JUNCTION        3.83          0.000        0.000
  WS01005181           JUNCTION        3.83          0.000        0.000
  WS01009841           JUNCTION        3.83          0.000        0.000
  WS02000078           JUNCTION        3.83          0.000        0.000
  WS02000112           JUNCTION        3.83          0.000        0.000
  WS02000136           JUNCTION        3.83          0.000        0.000
  WS02004053           JUNCTION        3.83          0.000        0.000
  WS02005192           JUNCTION        0.34          0.603        2.216
  WS02005193           JUNCTION        0.44          0.319        2.298
  WS02005196           JUNCTION        0.39          0.454        2.252
  WS02006109           JUNCTION        2.51          0.959        0.879
  WS02006110           JUNCTION        2.52          0.974        0.871
  WS02006111           JUNCTION        2.55          0.979        0.898
  WS02006112           JUNCTION        2.82          1.233        0.450
  WS02006113           JUNCTION        2.54          0.979        0.954
  WS02006115           JUNCTION        2.84          1.249        1.050
  WS02006116           JUNCTION        2.91          1.307        1.043
  WS02006183           JUNCTION        3.83          0.000        0.000
  WS02006228           JUNCTION        2.48          0.934        1.297
  WS02006229           JUNCTION        2.44          0.894        1.560
  WS02006231           JUNCTION        2.38          0.789        0.754
  WS02006232           JUNCTION        2.36          0.661        0.828
  WS02006234           JUNCTION        2.35          0.531        0.726
  WS02006235           JUNCTION        2.34          0.521        0.773
  WS02006238           JUNCTION        2.34          0.511        0.923
  WS02006239           JUNCTION        2.32          0.481        0.848
  WS02006242           JUNCTION        2.28          0.414        0.435
  WS02006240           JUNCTION        2.28          0.401        1.002
  WS02006243           JUNCTION        2.24          0.316        0.464
  WS02006245           JUNCTION        2.22          0.231        0.624
  WS02006247           JUNCTION        2.22          0.183        0.577
  WS02006249           JUNCTION        1.69          0.137        0.251
  WS02006251           JUNCTION        0.59          0.173        1.337
  WS02006253           JUNCTION        0.24          0.069        2.385
  WS02618401           JUNCTION        3.83          0.000        0.000
  WSA1649              JUNCTION        3.83          0.000        0.000
  
  
  *********************
  Node Flooding Summary
  *********************
  
  Flooding refers to all water that overflows a node, whether it ponds or not.
  --------------------------------------------------------------------------
                                                             Total   Maximum
                                 Maximum   Time of Max       Flood    Ponded
                        Hours       Rate    Occurrence      Volume     Depth
  Node                 Flooded       MLD   days hr:min    10^6 ltr    Meters
  --------------------------------------------------------------------------
  CC-storage              0.22     15.30      0  03:09       0.105     0.000
  
  
  **********************
  Storage Volume Summary
  **********************
  
  --------------------------------------------------------------------------------------------------
                         Average     Avg  Evap Exfil       Maximum     Max    Time of Max    Maximum
                          Volume    Pcnt  Pcnt  Pcnt        Volume    Pcnt     Occurrence    Outflow
  Storage Unit           1000 m3    Full  Loss  Loss       1000 m3    Full    days hr:min        MLD
  --------------------------------------------------------------------------------------------------
  CC-storage               0.044      28     0     0         0.159     100       0  03:09      34.56
  
  
  ***********************
  Outfall Loading Summary
  ***********************
  
  ---------------------------------------------------------------------------------------------------------------------------------
                         Flow       Avg       Max       Total         Total         Total         Total         Total         Total
                         Freq      Flow      Flow      Volume           COD         NH3-N            TN            TP            SS
  Outfall Node           Pcnt       MLD       MLD    10^6 ltr            kg            kg            kg            kg            kg
  ---------------------------------------------------------------------------------------------------------------------------------
  outfall-5             90.65     19.75     39.17       1.716       189.429         0.000         0.000         0.000         0.000
  outfall-14            90.93     12.52     21.26       1.109       171.537         0.000         0.000         0.000         0.000
  outfall-16             0.00      0.00      0.00       0.000         0.000         0.000         0.000         0.000         0.000
  ---------------------------------------------------------------------------------------------------------------------------------
  System                60.52     32.27     59.63       2.824       360.966         0.000         0.000         0.000         0.000
  
  
  ********************
  Link Flow Summary
  ********************
  
  -----------------------------------------------------------------------------
                                 Maximum  Time of Max   Maximum    Max/    Max/
                                  |Flow|   Occurrence   |Veloc|    Full    Full
  Link                 Type          MLD  days hr:min     m/sec    Flow   Depth
  -----------------------------------------------------------------------------
  WSL2038              CONDUIT      7.10     0  03:00      0.36    0.35    1.00
  WSL2039              CONDUIT     13.96     0  03:35      0.92    0.72    1.00
  WSL2041              CONDUIT     10.81     0  03:35      0.68    0.53    1.00
  WSL2294              CONDUIT     17.69     0  00:52      0.87    0.59    1.00
  WSL2295              CONDUIT     16.60     0  00:52      0.83    0.75    1.00
  WSL2296              CONDUIT     20.76     0  02:52      0.63    0.12    1.00
  WSL2297              CONDUIT     20.92     0  02:52      0.34    0.40    1.00
  WSL2298              CONDUIT     20.55     0  02:52      1.01    0.95    1.00
  WSL2301              CONDUIT     20.99     0  02:52      0.31    0.19    1.00
  WSL2302              CONDUIT     21.20     0  02:52      0.31    0.26    1.00
  WSL2441              CONDUIT     19.38     0  00:52      0.95    0.50    1.00
  WSL2442              CONDUIT     20.63     0  00:51      1.23    0.53    1.00
  WSL2443              CONDUIT     21.02     0  00:51      1.40    0.33    1.00
  WSL2444              CONDUIT     20.73     0  00:50      1.61    0.33    1.00
  WSL2446              CONDUIT     20.53     0  00:50      1.61    0.35    1.00
  WSL2447              CONDUIT     20.08     0  00:50      1.39    1.03    1.00
  WSL2448              CONDUIT     19.76     0  00:50      1.21    0.56    1.00
  WSL2449              CONDUIT     19.70     0  00:49      1.14    0.69    1.00
  WSL2450              CONDUIT     19.74     0  00:49      1.17    0.41    1.00
  WSL2451              CONDUIT     20.04     0  00:49      1.15    1.31    1.00
  WSL2452              CONDUIT     20.68     0  00:48      1.21    0.39    1.00
  WSL2454              CONDUIT     21.22     0  00:48      1.35    0.50    1.00
  WSL2478              CONDUIT     21.36     0  00:48      1.26    0.75    1.00
  WSL2479              CONDUIT     21.43     0  00:47      1.28    0.41    1.00
  WSL2480              CONDUIT     40.22     0  02:40      1.28    1.86    1.00
  WSL2482              CONDUIT     40.06     0  02:40      1.22    1.04    1.00
  WSL2484              CONDUIT     38.88     0  02:40      1.45    0.55    1.00
  WSL2493              CONDUIT     20.37     0  00:51      1.06    0.34    1.00
  8                    CONDUIT     39.17     0  02:40      7.04    0.52    0.51
  19                   CONDUIT      0.00     0  00:00      0.00    0.00    0.00
  17                   CONDUIT     21.26     0  02:52      6.06    0.28    0.36
  CC-Pump-1            PUMP        17.28     0  02:40              1.00
  CC-Pump-2            PUMP        17.28     0  02:00              1.00
  
  
  ***************************
  Flow Classification Summary
  ***************************
  
  -------------------------------------------------------------------------------------
                      Adjusted    ---------- Fraction of Time in Flow Class ---------- 
                       /Actual         Up    Down  Sub   Sup   Up    Down  Norm  Inlet 
  Conduit               Length    Dry  Dry   Dry   Crit  Crit  Crit  Crit  Ltd   Ctrl  
  -------------------------------------------------------------------------------------
  WSL2038                 1.00   0.00  0.00  0.00  1.00  0.00  0.00  0.00  0.01  0.00
  WSL2039                 1.00   0.00  0.00  0.00  1.00  0.00  0.00  0.00  0.01  0.00
  WSL2041                 1.00   0.00  0.00  0.00  1.00  0.00  0.00  0.00  0.24  0.00
  WSL2294                 1.00   0.00  0.00  0.00  1.00  0.00  0.00  0.00  0.00  0.00
  WSL2295                 1.00   0.00  0.00  0.00  1.00  0.00  0.00  0.00  0.00  0.00
  WSL2296                 1.00   0.00  0.00  0.00  1.00  0.00  0.00  0.00  0.17  0.00
  WSL2297                 1.00   0.00  0.00  0.00  1.00  0.00  0.00  0.00  0.00  0.00
  WSL2298                 1.00   0.00  0.00  0.00  0.98  0.02  0.00  0.00  0.00  0.00
  WSL2301                 1.00   0.00  0.00  0.00  1.00  0.00  0.00  0.00  0.04  0.00
  WSL2302                 1.00   0.00  0.00  0.00  1.00  0.00  0.00  0.00  0.01  0.00
  WSL2441                 1.00   0.00  0.00  0.00  1.00  0.00  0.00  0.00  0.00  0.00
  WSL2442                 1.00   0.00  0.00  0.00  1.00  0.00  0.00  0.00  0.13  0.00
  WSL2443                 1.00   0.00  0.00  0.00  1.00  0.00  0.00  0.00  0.20  0.00
  WSL2444                 1.00   0.00  0.00  0.00  0.95  0.05  0.00  0.00  0.17  0.00
  WSL2446                 1.00   0.00  0.00  0.00  0.95  0.05  0.00  0.00  0.08  0.00
  WSL2447                 1.00   0.00  0.00  0.00  1.00  0.00  0.00  0.00  0.00  0.00
  WSL2448                 1.00   0.00  0.00  0.00  1.00  0.00  0.00  0.00  0.01  0.00
  WSL2449                 1.00   0.00  0.00  0.00  1.00  0.00  0.00  0.00  0.04  0.00
  WSL2450                 1.00   0.00  0.00  0.00  1.00  0.00  0.00  0.00  0.25  0.00
  WSL2451                 1.00   0.00  0.00  0.00  1.00  0.00  0.00  0.00  0.00  0.00
  WSL2452                 1.00   0.00  0.00  0.00  1.00  0.00  0.00  0.00  0.32  0.00
  WSL2454                 1.00   0.00  0.00  0.00  1.00  0.00  0.00  0.00  0.04  0.00
  WSL2478                 1.00   0.00  0.00  0.00  1.00  0.00  0.00  0.00  0.00  0.00
  WSL2479                 1.00   0.00  0.00  0.00  1.00  0.00  0.00  0.00  0.28  0.00
  WSL2480                 1.00   0.00  0.00  0.00  1.00  0.00  0.00  0.00  0.00  0.00
  WSL2482                 1.00   0.00  0.00  0.00  1.00  0.00  0.00  0.00  0.30  0.00
  WSL2484                 1.00   0.00  0.00  0.00  1.00  0.00  0.00  0.00  0.27  0.00
  WSL2493                 1.00   0.00  0.00  0.00  1.00  0.00  0.00  0.00  0.05  0.00
  8                       1.00   0.09  0.00  0.00  0.00  0.91  0.00  0.00  0.13  0.00
  19                      1.00   1.00  0.00  0.00  0.00  0.00  0.00  0.00  0.00  0.00
  17                      1.00   0.09  0.00  0.00  0.00  0.91  0.00  0.00  0.02  0.00
  
  
  *************************
  Conduit Surcharge Summary
  *************************
  
  ----------------------------------------------------------------------------
                                                           Hours        Hours 
                         --------- Hours Full --------   Above Full   Capacity
  Conduit                Both Ends  Upstream  Dnstream   Normal Flow   Limited
  ----------------------------------------------------------------------------
  WSL2038                     0.34      0.34      0.39      0.01         0.01
  WSL2039                     0.44      0.44      0.50      0.01         0.01
  WSL2041                     0.39      0.39      0.44      0.01         0.01
  WSL2294                     2.51      2.51      2.52      0.01         0.01
  WSL2295                     2.52      2.52      2.54      0.01         0.01
  WSL2296                     2.55      2.55      2.94      0.01         0.01
  WSL2297                     2.82      2.82      2.83      0.01         0.01
  WSL2298                     2.54      2.54      2.55      0.01         0.01
  WSL2301                     2.83      2.83      2.91      0.01         0.01
  WSL2302                     2.91      2.91      2.93      0.01         0.01
  WSL2441                     2.48      2.48      2.51      0.01         0.01
  WSL2442                     2.49      2.49      2.53      0.01         0.01
  WSL2443                     2.38      2.38      2.49      0.01         0.01
  WSL2444                     2.36      2.36      2.38      0.01         0.01
  WSL2446                     2.35      2.35      2.36      0.01         0.01
  WSL2447                     2.34      2.34      2.35      0.01         0.01
  WSL2448                     2.34      2.34      2.34      0.01         0.01
  WSL2449                     2.32      2.32      2.34      0.01         0.01
  WSL2450                     2.28      2.28      2.32      0.01         0.01
  WSL2451                     2.28      2.28      2.28      0.05         0.01
  WSL2452                     2.24      2.24      2.28      0.01         0.01
  WSL2454                     2.22      2.22      2.24      0.01         0.01
  WSL2478                     2.22      2.22      2.22      0.01         0.01
  WSL2479                     1.75      1.75      2.22      0.01         0.01
  WSL2480                     1.69      1.69      1.75      0.56         0.64
  WSL2482                     0.59      0.59      1.69      0.05         0.09
  WSL2484                     0.24      0.24      0.59      0.01         0.01
  WSL2493                     2.44      2.44      2.48      0.01         0.01
  
  
  ***************
  Pumping Summary
  ***************
  
  ---------------------------------------------------------------------------------------------------------
                                                  Min       Avg       Max     Total     Power    % Time Off
                        Percent   Number of      Flow      Flow      Flow    Volume     Usage    Pump Curve
  Pump                 Utilized   Start-Ups       MLD       MLD       MLD  10^6 ltr     Kw-hr    Low   High
  ---------------------------------------------------------------------------------------------------------
  CC-Pump-1               52.14           5      0.00      8.65     17.28     0.600      6.88    0.0    0.0
  CC-Pump-2               56.49           5      0.00      9.11     17.28     0.688      7.87    0.0    0.0
  
  
  ***************************
  Link Pollutant Load Summary
  ***************************
  
  ------------------------------------------------------------------------------------------
                                 COD         NH3-N            TN            TP            SS
  Link                            kg            kg            kg            kg            kg
  ------------------------------------------------------------------------------------------
  WSL2038                     47.486         0.000         0.000         0.000         0.000
  WSL2039                     54.493         0.000         0.000         0.000         0.000
  WSL2041                     51.528         0.000         0.000         0.000         0.000
  WSL2294                    195.647         0.000         0.000         0.000         0.000
  WSL2295                    192.025         0.000         0.000         0.000         0.000
  WSL2296                    191.962         0.000         0.000         0.000         0.000
  WSL2297                    187.457         0.000         0.000         0.000         0.000
  WSL2298                    190.115         0.000         0.000         0.000         0.000
  WSL2301                    181.926         0.000         0.000         0.000         0.000
  WSL2302                    178.552         0.000         0.000         0.000         0.000
  WSL2441                    198.418         0.000         0.000         0.000         0.000
  WSL2442                     55.208         0.000         0.000         0.000         0.000
  WSL2443                     50.414         0.000         0.000         0.000         0.000
  WSL2444                     45.066         0.000         0.000         0.000         0.000
  WSL2446                     46.613         0.000         0.000         0.000         0.000
  WSL2447                     51.526         0.000         0.000         0.000         0.000
  WSL2448                     52.402         0.000         0.000         0.000         0.000
  WSL2449                     53.614         0.000         0.000         0.000         0.000
  WSL2450                     55.615         0.000         0.000         0.000         0.000
  WSL2451                     57.534         0.000         0.000         0.000         0.000
  WSL2452                     58.760         0.000         0.000         0.000         0.000
  WSL2454                     57.994         0.000         0.000         0.000         0.000
  WSL2478                     57.877         0.000         0.000         0.000         0.000
  WSL2479                     63.872         0.000         0.000         0.000         0.000
  WSL2480                    182.951         0.000         0.000         0.000         0.000
  WSL2482                    178.645         0.000         0.000         0.000         0.000
  WSL2484                    151.395         0.000         0.000         0.000         0.000
  WSL2493                     62.883         0.000         0.000         0.000         0.000
  8                          189.429         0.000         0.000         0.000         0.000
  19                           0.000         0.000         0.000         0.000         0.000
  17                         171.537         0.000         0.000         0.000         0.000
  CC-Pump-1                   44.506         0.000         0.000         0.000         0.000
  CC-Pump-2                   52.998         0.000         0.000         0.000         0.000
  

  Analysis begun on:  Thu Aug 15 18:10:25 2019
  Analysis ended on:  Thu Aug 15 18:10:25 2019
  Total elapsed time: < 1 sec