
  EPA STORM WATER MANAGEMENT MODEL - VERSION 5.1 (Build 5.3.0.dev0)
  --------------------------------------------------------------

  
  *********************************************************
  NOTE: The summary statistics displayed in this report are
  based on results found at every computational time step,  
  not just on results from each reporting time step.
  *********************************************************
  
  ****************
  Analysis Options
  ****************
  Flow Units ............... MLD
  Process Models:
    Rainfall/Runoff ........ YES
    RDII ................... NO
    Snowmelt ............... NO
    Groundwater ............ NO
    Flow Routing ........... YES
    Ponding Allowed ........ NO
    Water Quality .......... YES
  Infiltration Method ...... GREEN_AMPT
  Flow Routing Method ...... DYNWAVE
  Surcharge Method ......... EXTRAN
  Starting Date ............ 08/28/2015 08:00:00
  Ending Date .............. 08/28/2015 12:00:00
  Antecedent Dry Days ...... 4.0
  Report Time Step ......... 00:01:00
  Wet Time Step ............ 00:01:00
  Dry Time Step ............ 00:01:00
  Routing Time Step ........ 5.00 sec
  Variable Time Step ....... YES
  Maximum Trials ........... 8
  Number of Threads ........ 1
  Head Tolerance ........... 0.001500 m
  
  
  **************************        Volume         Depth
  Runoff Quantity Continuity     hectare-m            mm
  **************************     ---------       -------
  Total Precipitation ......         3.431        12.164
  Evaporation Loss .........         0.000         0.000
  Infiltration Loss ........         1.672         5.929
  Surface Runoff ...........         0.754         2.673
  Final Storage ............         1.007         3.569
  Continuity Error (%) .....        -0.050
  
  
  **************************           COD         NH3-N            TN            TP            SS
  Runoff Quality Continuity             kg            kg            kg            kg            kg
  **************************    ----------    ----------    ----------    ----------    ----------
  Initial Buildup ..........     13074.240         0.000         0.000         0.000         0.000
  Surface Buildup ..........       110.358         0.000         0.000         0.000         0.000
  Wet Deposition ...........         0.000         0.000         0.000         0.000         0.000
  Sweeping Removal .........         0.000         0.000         0.000         0.000         0.000
  Infiltration Loss ........        82.243         0.000         0.000         0.000         0.000
  BMP Removal ..............         0.000         0.000         0.000         0.000         0.000
  Surface Runoff ...........       755.083         0.000         0.000         0.000         0.000
  Remaining Buildup ........     12346.535         0.000         0.000         0.000         0.000
  Continuity Error (%) .....         0.006         0.000         0.000         0.000         0.000
  
  
  **************************        Volume        Volume
  Flow Routing Continuity        hectare-m      10^6 ltr
  **************************     ---------     ---------
  Dry Weather Inflow .......         0.000         0.000
  Wet Weather Inflow .......         0.752         7.517
  Groundwater Inflow .......         0.000         0.000
  RDII Inflow ..............         0.000         0.000
  External Inflow ..........         0.561         5.611
  External Outflow .........         0.834         8.340
  Flooding Loss ............         0.388         3.876
  Evaporation Loss .........         0.000         0.000
  Exfiltration Loss ........         0.000         0.000
  Initial Stored Volume ....         0.000         0.000
  Final Stored Volume ......         0.091         0.911
  Continuity Error (%) .....         0.010
  
  
  **************************           COD         NH3-N            TN            TP            SS
  Quality Routing Continuity            kg            kg            kg            kg            kg
  **************************    ----------    ----------    ----------    ----------    ----------
  Dry Weather Inflow .......         0.000         0.000         0.000         0.000         0.000
  Wet Weather Inflow .......       753.401         0.000         0.000         0.000         0.000
  Groundwater Inflow .......         0.000         0.000         0.000         0.000         0.000
  RDII Inflow ..............         0.000         0.000         0.000         0.000         0.000
  External Inflow ..........       937.083         0.000         0.000         0.000         0.000
  External Outflow .........      1150.581         0.000         0.000         0.000         0.000
  Flooding Loss ............       442.500         0.000         0.000         0.000         0.000
  Exfiltration Loss ........         0.000         0.000         0.000         0.000         0.000
  Mass Reacted .............         0.000         0.000         0.000         0.000         0.000
  Initial Stored Mass ......         0.000         0.000         0.000         0.000         0.000
  Final Stored Mass ........        99.993         0.000         0.000         0.000         0.000
  Continuity Error (%) .....        -0.153         0.000         0.000         0.000         0.000
  
  
  *************************
  Highest Continuity Errors
  *************************
  Node WS02003099 (1.19%)
  
  
  ***************************
  Time-Step Critical Elements
  ***************************
  Link WSL2448 (44.63%)
  Link WSL1477 (27.63%)
  Link WSL1516 (24.21%)
  
  
  ********************************
  Highest Flow Instability Indexes
  ********************************
  Link WSL1477 (117)
  Link WSL1516 (115)
  Link XRpipe (21)
  Link WSL175 (20)
  Link WSL1515 (19)
  
  
  *************************
  Routing Time Step Summary
  *************************
  Minimum Time Step           :     1.35 sec
  Average Time Step           :     2.99 sec
  Maximum Time Step           :     5.00 sec
  Percent in Steady State     :     0.00
  Average Iterations per Step :     3.44
  Percent Not Converging      :    14.14
  
  
  ***************************
  Subcatchment Runoff Summary
  ***************************
  
  ------------------------------------------------------------------------------------------------------------------------------
                            Total      Total      Total      Total     Imperv       Perv      Total       Total     Peak  Runoff
                           Precip      Runon       Evap      Infil     Runoff     Runoff     Runoff      Runoff   Runoff   Coeff
  Subcatchment                 mm         mm         mm         mm         mm         mm         mm    10^6 ltr      MLD
  ------------------------------------------------------------------------------------------------------------------------------
  1                         12.16      10.73       0.00       7.95       5.43       3.43       8.85        0.11     1.92   0.387
  2                         12.16       0.00       0.00       6.58       2.87       0.57       3.44        0.12     2.16   0.282
  3                         12.16       0.00       0.00       6.60       2.83       0.47       3.30        0.17     3.10   0.271
  4                         12.16       0.00       0.00       6.57       2.89       0.63       3.52        0.09     1.75   0.289
  5                         12.16       8.54       0.00       7.83       4.93       2.62       7.55        0.13     2.34   0.365
  6                         12.16       0.00       0.00       6.60       2.83       0.48       3.31        0.16     3.01   0.272
  7                         12.16       0.00       0.00       5.23       2.93       0.00       2.93        4.70    77.58   0.241
  8                         12.16       0.00       0.00       6.59       2.85       0.51       3.36        0.14     2.63   0.276
  9                         12.16       3.30       0.00       7.15       3.61       1.00       4.61        0.17     3.19   0.298
  17                        12.16       0.00       0.00       6.59       2.86       0.54       3.41        0.13     2.32   0.280
  18                        12.16       0.00       0.00       6.59       2.84       0.51       3.35        0.15     2.69   0.275
  28                        12.16       9.97       0.00       7.98       5.15       2.40       7.56        0.20     3.52   0.341
  29                        12.16       4.16       0.00       7.16       3.81       1.28       5.10        0.12     2.24   0.312
  30                        12.16      13.02       0.00       8.27       6.07       4.76      10.83        0.10     1.84   0.430
  31                        12.16       0.00       0.00       6.58       2.86       0.55       3.42        0.12     2.26   0.281
  33                        12.16       0.00       0.00       6.50       2.96       0.99       3.95        0.03     0.67   0.325
  34                        12.16       7.30       0.00       7.70       4.62       2.15       6.77        0.14     2.56   0.348
  35                        12.16       0.00       0.00       6.58       2.88       0.59       3.47        0.11     1.96   0.285
  36                        12.16       6.56       0.00       7.66       4.28       1.26       5.54        0.33     5.83   0.296
  39                        12.16       0.00       0.00       6.58       2.87       0.56       3.43        0.12     2.18   0.282
  40                        12.16       1.80       0.00       6.91       3.27       0.76       4.03        0.16     2.90   0.289
  41                        12.16       0.00       0.00       6.55       2.92       0.71       3.63        0.07     1.33   0.299
  42                        12.16       0.00       0.00       6.56       2.90       0.67       3.57        0.08     1.53   0.294
  43                        12.16       0.00       0.00       6.42       3.00       1.36       4.36        0.02     0.32   0.358
  44                        12.16      92.22       0.00      12.41      25.45      48.38      73.83        0.27     4.74   0.707
  45                        12.16       0.00       0.00       6.51       2.96       0.92       3.88        0.04     0.77   0.319
  46                        12.16       5.45       0.00       7.42       4.17       1.68       5.85        0.13     2.30   0.332
  47                        12.16       0.00       0.00       6.52       2.95       0.90       3.85        0.04     0.83   0.316
  48                        12.16       2.70       0.00       6.99       3.56       1.30       4.86        0.08     1.45   0.327
  55                        12.16       4.01       0.00       7.12       3.92       2.02       5.93        0.05     0.94   0.367
  56                        12.16       6.01       0.00       7.49       4.30       1.79       6.09        0.13     2.39   0.335
  57                        12.16       0.00       0.00       6.60       2.83       0.48       3.30        0.17     3.04   0.272
  59                        12.16       0.00       0.00       6.49       2.97       1.00       3.97        0.03     0.65   0.326
  60                        12.16       8.80       0.00       7.67       5.10       4.05       9.14        0.05     0.91   0.436
  61                        12.16       0.00       0.00       6.64       2.62       0.26       2.88        0.52     9.38   0.237
  62                        12.16       0.00       0.00       6.64       2.61       0.26       2.87        0.54     9.83   0.236
  64                        12.16       0.00       0.00       6.52       2.95       0.87       3.82        0.05     0.88   0.314
  
  
  ****************************
  Subcatchment Washoff Summary
  ****************************
  
  ------------------------------------------------------------------------------------------
                                 COD         NH3-N            TN            TP            SS
  Subcatchment                    kg            kg            kg            kg            kg
  ------------------------------------------------------------------------------------------
  1                            9.489         0.000         0.000         0.000         0.000
  2                            0.000         0.000         0.000         0.000         0.000
  3                            0.000         0.000         0.000         0.000         0.000
  4                            9.443         0.000         0.000         0.000         0.000
  5                           28.091         0.000         0.000         0.000         0.000
  6                           15.637         0.000         0.000         0.000         0.000
  7                          423.191         0.000         0.000         0.000         0.000
  8                           13.806         0.000         0.000         0.000         0.000
  9                           25.268         0.000         0.000         0.000         0.000
  17                          12.274         0.000         0.000         0.000         0.000
  18                          14.071         0.000         0.000         0.000         0.000
  28                          51.749         0.000         0.000         0.000         0.000
  29                          23.774         0.000         0.000         0.000         0.000
  30                          26.997         0.000         0.000         0.000         0.000
  31                          11.945         0.000         0.000         0.000         0.000
  33                           3.839         0.000         0.000         0.000         0.000
  34                          28.609         0.000         0.000         0.000         0.000
  35                          10.499         0.000         0.000         0.000         0.000
  36                          61.846         0.000         0.000         0.000         0.000
  39                          11.560         0.000         0.000         0.000         0.000
  40                          19.694         0.000         0.000         0.000         0.000
  41                           7.308         0.000         0.000         0.000         0.000
  42                           8.331         0.000         0.000         0.000         0.000
  43                           1.921         0.000         0.000         0.000         0.000
  44                          63.596         0.000         0.000         0.000         0.000
  45                           4.392         0.000         0.000         0.000         0.000
  46                          23.664         0.000         0.000         0.000         0.000
  47                           4.662         0.000         0.000         0.000         0.000
  48                          11.461         0.000         0.000         0.000         0.000
  55                           8.808         0.000         0.000         0.000         0.000
  56                          26.276         0.000         0.000         0.000         0.000
  57                          15.791         0.000         0.000         0.000         0.000
  59                           3.734         0.000         0.000         0.000         0.000
  60                          11.749         0.000         0.000         0.000         0.000
  61                          44.155         0.000         0.000         0.000         0.000
  62                          46.060         0.000         0.000         0.000         0.000
  64                           4.963         0.000         0.000         0.000         0.000
  ------------------------------------------------------------------------------------------
  System                    1088.652         0.000         0.000         0.000         0.000
  
  
  ******************
  Node Depth Summary
  ******************
  
  ---------------------------------------------------------------------------------
                                 Average  Maximum  Maximum  Time of Max    Reported
                                   Depth    Depth      HGL   Occurrence   Max Depth
  Node                 Type       Meters   Meters   Meters  days hr:min      Meters
  ---------------------------------------------------------------------------------
  WS01000070           JUNCTION     0.00     0.00     0.00     0  00:00        0.00
  WS01000323           JUNCTION     0.00     0.00     0.00     0  00:00        0.00
  WS01000533           JUNCTION     0.00     0.00     6.86     0  00:00        0.00
  WS01005172           JUNCTION     0.00     0.00     0.00     0  00:00        0.00
  WS01005181           JUNCTION     0.00     0.00     0.00     0  00:00        0.00
  WS01009841           JUNCTION     0.00     0.00     0.00     0  00:00        0.00
  WS02000078           JUNCTION     0.00     0.00     0.00     0  00:00        0.00
  WS02000112           JUNCTION     0.00     0.00     0.00     0  00:00        0.00
  WS02000136           JUNCTION     0.00     0.00     0.00     0  00:00        0.00
  WS02001211           JUNCTION     0.41     0.45     5.29     0  03:02        0.45
  WS02001212           JUNCTION     0.34     0.39     5.19     0  03:01        0.39
  WS02001213           JUNCTION     0.44     0.50     5.20     0  03:01        0.50
  WS02003059           JUNCTION     0.39     0.49     5.14     0  03:00        0.48
  WS02003060           JUNCTION     0.44     0.57     5.12     0  02:59        0.57
  WS02003066           JUNCTION     0.16     0.28     5.58     0  02:58        0.27
  WS02003067           JUNCTION     0.27     0.46     5.78     0  02:58        0.44
  WS02003071           JUNCTION     0.49     0.62     5.02     0  02:59        0.62
  WS02003072           JUNCTION     0.41     0.54     4.91     0  03:01        0.54
  WS02003073           JUNCTION     0.47     0.66     4.90     0  03:00        0.65
  WS02003076           JUNCTION     0.43     0.62     4.85     0  03:20        0.60
  WS02003077           JUNCTION     0.06     0.09     5.10     0  03:04        0.09
  WS02003078           JUNCTION     0.04     0.06     6.96     0  03:04        0.06
  WS02003079           JUNCTION     0.11     0.18     7.09     0  03:03        0.18
  WS02003093           JUNCTION     0.01     0.04     7.38     0  03:01        0.04
  WS02003094           JUNCTION     0.10     0.16     7.38     0  03:01        0.16
  WS02003098           JUNCTION     0.06     0.10     7.27     0  03:02        0.10
  WS02003099           JUNCTION     0.13     0.20     7.24     0  03:02        0.20
  WS02003102           JUNCTION     0.11     0.19     7.22     0  03:01        0.19
  WS02003103           JUNCTION     0.13     0.21     7.18     0  03:02        0.21
  WS02003104           JUNCTION     0.13     0.20     7.16     0  03:02        0.20
  WS02003106           JUNCTION     0.13     0.20     7.13     0  03:03        0.20
  WS02004050           JUNCTION     0.30     0.39     4.61     0  03:01        0.39
  WS02004053           JUNCTION     0.00     0.00     0.00     0  00:00        0.00
  WS02004136           JUNCTION     0.17     0.18     6.91     0  01:20        0.18
  WS02004139           JUNCTION     0.35     0.37     5.33     0  03:03        0.37
  WS02004401           JUNCTION     0.26     0.43     6.43     0  02:54        0.43
  WS02004402           JUNCTION     0.26     0.44     6.40     0  02:55        0.44
  WS02004403           JUNCTION     0.25     0.44     6.37     0  02:55        0.44
  WS02004404           JUNCTION     0.33     0.52     6.37     0  02:55        0.52
  WS02004405           JUNCTION     0.33     0.53     6.37     0  02:55        0.53
  WS02004406           JUNCTION     0.31     0.50     6.33     0  02:56        0.50
  WS02004407           JUNCTION     0.30     0.48     6.28     0  02:56        0.48
  WS02004409           JUNCTION     0.29     0.46     6.23     0  02:56        0.46
  WS02004410           JUNCTION     0.28     0.45     6.17     0  02:56        0.45
  WS02004411           JUNCTION     0.27     0.41     6.09     0  02:57        0.41
  WS02004412           JUNCTION     0.22     0.36     6.00     0  02:57        0.36
  WS02004413           JUNCTION     0.23     0.38     5.85     0  02:57        0.38
  WS02004997           JUNCTION     5.31     6.90     8.51     0  01:56        6.74
  WS02005192           JUNCTION     0.13     0.28     8.15     0  02:59        0.28
  WS02005193           JUNCTION     0.14     0.29     8.11     0  02:59        0.28
  WS02005196           JUNCTION     0.14     0.27     8.12     0  02:59        0.26
  WS02006109           JUNCTION     0.30     0.50     7.12     0  03:06        0.50
  WS02006110           JUNCTION     0.28     0.46     7.06     0  03:06        0.46
  WS02006111           JUNCTION     0.14     0.25     6.83     0  03:07        0.25
  WS02006112           JUNCTION     0.28     0.46     6.58     0  03:08        0.46
  WS02006113           JUNCTION     0.24     0.39     6.98     0  03:07        0.38
  WS02006115           JUNCTION     0.24     0.41     6.51     0  03:08        0.41
  WS02006116           JUNCTION     0.26     0.44     6.48     0  03:09        0.44
  WS02006183           JUNCTION     0.00     0.00     0.00     0  00:00        0.00
  WS02006228           JUNCTION     0.30     0.51     7.16     0  03:07        0.51
  WS02006229           JUNCTION     0.27     0.48     7.17     0  03:07        0.48
  WS02006230           JUNCTION     0.25     0.45     7.20     0  03:08        0.45
  WS02006231           JUNCTION     0.19     0.35     7.25     0  03:04        0.35
  WS02006232           JUNCTION     0.18     0.33     7.36     0  03:04        0.33
  WS02006234           JUNCTION     0.18     0.33     7.49     0  03:04        0.33
  WS02006235           JUNCTION     0.22     0.38     7.55     0  03:03        0.38
  WS02006238           JUNCTION     0.22     0.39     7.57     0  03:03        0.39
  WS02006239           JUNCTION     0.23     0.42     7.63     0  03:03        0.42
  WS02006242           JUNCTION     0.25     0.44     7.74     0  03:04        0.44
  WS02006240           JUNCTION     0.20     0.38     7.67     0  03:04        0.38
  WS02006243           JUNCTION     0.19     0.37     7.79     0  03:02        0.37
  WS02006245           JUNCTION     0.19     0.38     7.87     0  03:01        0.37
  WS02006247           JUNCTION     0.21     0.41     7.92     0  03:01        0.40
  WS02006248           JUNCTION     0.17     0.36     7.95     0  03:01        0.36
  WS02006249           JUNCTION     0.20     0.39     7.99     0  03:00        0.39
  WS02006251           JUNCTION     0.18     0.39     8.06     0  03:00        0.38
  WS02006253           JUNCTION     0.13     0.31     8.11     0  02:59        0.30
  WS02618401           JUNCTION     0.00     0.00     0.00     0  00:00        0.00
  WS8802               JUNCTION     0.00     0.00     4.38     0  00:00        0.00
  WSA1649              JUNCTION     0.00     0.00     0.00     0  00:00        0.00
  WSF200               JUNCTION     0.15     0.26     5.36     0  02:57        0.26
  XR-Inflow            JUNCTION     5.13     6.55     8.36     0  01:56        6.55
  WS02004114           JUNCTION     5.31     7.07     8.67     0  01:56        6.74
  outfall-2            OUTFALL      0.00     0.00     7.00     0  00:00        0.00
  outfall-5            OUTFALL      0.00     0.00     7.67     0  00:00        0.00
  outfall-14           OUTFALL      0.00     0.00     7.66     0  00:00        0.00
  outfall-16           OUTFALL      0.00     0.00     8.39     0  00:00        0.00
  12                   OUTFALL      0.30     0.39     0.39     0  03:02        0.39
  XR-storage           STORAGE      6.40     8.19     8.69     0  01:56        7.83
  CC-storage           STORAGE      3.51     5.03     8.21     0  02:18        5.01
  JK-storage           STORAGE      3.90     4.80     7.80     0  01:49        4.80
  
  
  *******************
  Node Inflow Summary
  *******************
  
  -------------------------------------------------------------------------------------------------
                                  Maximum  Maximum                  Lateral       Total        Flow
                                  Lateral    Total  Time of Max      Inflow      Inflow     Balance
                                   Inflow   Inflow   Occurrence      Volume      Volume       Error
  Node                 Type           MLD      MLD  days hr:min    10^6 ltr    10^6 ltr     Percent
  -------------------------------------------------------------------------------------------------
  WS01000070           JUNCTION      0.00     0.00     0  00:00           0           0       0.000 ltr
  WS01000323           JUNCTION      0.00     0.00     0  00:00           0           0       0.000 ltr
  WS01000533           JUNCTION      0.00     0.00     0  00:00           0           0       0.000 ltr
  WS01005172           JUNCTION      0.00     0.00     0  00:00           0           0       0.000 ltr
  WS01005181           JUNCTION      0.00     0.00     0  00:00           0           0       0.000 ltr
  WS01009841           JUNCTION      0.00     0.00     0  00:00           0           0       0.000 ltr
  WS02000078           JUNCTION      0.00     0.00     0  00:00           0           0       0.000 ltr
  WS02000112           JUNCTION      0.00     0.00     0  00:00           0           0       0.000 ltr
  WS02000136           JUNCTION      0.00     0.00     0  00:00           0           0       0.000 ltr
  WS02001211           JUNCTION      0.25    33.88     0  01:38      0.0407        4.85       0.517
  WS02001212           JUNCTION      0.21    34.02     0  01:39      0.0346        4.86       0.283
  WS02001213           JUNCTION      0.30    34.40     0  03:03      0.0489         4.9       0.382
  WS02003059           JUNCTION      0.23    34.96     0  03:03      0.0378        4.92       0.448
  WS02003060           JUNCTION      0.16    83.61     0  02:59      0.0252         7.8       0.392
  WS02003066           JUNCTION      0.08    55.83     0  02:58      0.0122        2.86       0.137
  WS02003067           JUNCTION      0.26    45.08     0  02:58      0.0395        2.85       0.204
  WS02003071           JUNCTION      0.35    79.23     0  02:59      0.0538        7.82       0.417
  WS02003072           JUNCTION      0.24    78.95     0  02:59      0.0382        7.83       0.257
  WS02003073           JUNCTION      0.07    86.66     0  03:01     0.00978        8.18       0.265
  WS02003076           JUNCTION      0.72    94.11     0  03:01        0.12        8.28       0.137
  WS02003077           JUNCTION      0.04     5.84     0  03:04      0.0059       0.364       0.151
  WS02003078           JUNCTION      0.03     6.66     0  03:03     0.00419       0.357      -0.168
  WS02003079           JUNCTION      0.04     5.79     0  03:03     0.00561       0.354       0.340
  WS02003093           JUNCTION      0.02     0.02     0  01:00     0.00306     0.00306       0.412
  WS02003094           JUNCTION      3.24     3.24     0  03:01       0.184       0.187       0.975
  WS02003098           JUNCTION      0.02     3.22     0  03:01     0.00293       0.188       0.559
  WS02003099           JUNCTION      0.07     3.25     0  03:02      0.0109       0.198       1.209
  WS02003102           JUNCTION      2.66     5.78     0  03:01       0.146       0.342       0.554
  WS02003103           JUNCTION      0.02     5.74     0  03:01     0.00239       0.342       0.401
  WS02003104           JUNCTION      0.02     5.74     0  03:02     0.00302       0.344       0.332
  WS02003106           JUNCTION      0.05     5.77     0  03:02     0.00728        0.35       0.422
  WS02004050           JUNCTION      0.72   101.02     0  03:20       0.119        8.39       0.589
  WS02004053           JUNCTION      0.00     0.00     0  00:00           0           0       0.000 ltr
  WS02004136           JUNCTION      0.44    32.92     0  01:20      0.0703        4.77       0.063
  WS02004139           JUNCTION      0.38    33.61     0  01:20      0.0619        4.83       0.362
  WS02004401           JUNCTION      0.05    34.69     0  03:09     0.00897        2.03       0.446
  WS02004402           JUNCTION      0.22    34.67     0  03:09      0.0335        2.05       0.363
  WS02004403           JUNCTION      0.23    34.54     0  03:10      0.0349        2.08       0.241
  WS02004404           JUNCTION      0.24    34.30     0  03:08      0.0365        2.11       0.200
  WS02004405           JUNCTION      1.82    35.39     0  02:55       0.105        2.21       0.278
  WS02004406           JUNCTION      3.64    38.71     0  02:56        0.22        2.42       0.360
  WS02004407           JUNCTION      0.11    38.74     0  02:56      0.0171        2.43       0.309
  WS02004409           JUNCTION      2.52    41.02     0  02:56       0.162        2.59       0.253
  WS02004410           JUNCTION      0.15    41.13     0  02:56      0.0226         2.6       0.261
  WS02004411           JUNCTION      0.25    41.36     0  02:57      0.0379        2.63       0.223
  WS02004412           JUNCTION      3.09    44.40     0  02:57       0.178        2.81       0.166
  WS02004413           JUNCTION      0.11    44.52     0  02:57      0.0172        2.82       0.150
  WS02004997           JUNCTION      0.42    40.92     0  01:56      0.0693        4.78       0.805
  WS02005192           JUNCTION      3.14     3.22     0  01:59       0.182       0.185       0.216
  WS02005193           JUNCTION      0.09     6.85     0  02:57      0.0146       0.245       0.313
  WS02005196           JUNCTION      0.12     5.09     0  02:59       0.019       0.214       0.367
  WS02006109           JUNCTION      0.08    31.37     0  03:07      0.0135        1.76       0.672
  WS02006110           JUNCTION      0.08    31.57     0  03:07      0.0132        1.76       0.632
  WS02006111           JUNCTION      0.24    34.50     0  03:07      0.0366        1.98       0.225
  WS02006112           JUNCTION      0.18    34.86     0  03:07      0.0273           2       0.527
  WS02006113           JUNCTION      3.24    34.38     0  03:07       0.194        1.95       0.431
  WS02006115           JUNCTION      0.08    34.68     0  03:08      0.0134           2       0.530
  WS02006116           JUNCTION      0.24    34.71     0  03:08       0.036        2.03       0.487
  WS02006183           JUNCTION      0.00     0.00     0  00:00           0           0       0.000 ltr
  WS02006228           JUNCTION      4.90    32.02     0  03:05       0.301        1.76       0.492
  WS02006229           JUNCTION      0.13    26.90     0  03:05        0.02        1.46       0.481
  WS02006230           JUNCTION      0.07    27.36     0  03:05      0.0116        1.45       0.477
  WS02006231           JUNCTION      0.13    27.17     0  03:04      0.0205        1.44       0.239
  WS02006232           JUNCTION      2.23    26.98     0  03:04       0.129        1.43       0.249
  WS02006234           JUNCTION      0.14    24.81     0  03:04      0.0216         1.3       0.266
  WS02006235           JUNCTION      0.14    24.71     0  03:03      0.0223        1.28       0.139
  WS02006238           JUNCTION      0.15    24.60     0  03:03      0.0235        1.26       0.238
  WS02006239           JUNCTION      0.11    24.38     0  03:03      0.0174        1.24       0.355
  WS02006242           JUNCTION      0.08    24.73     0  03:02      0.0129        1.22       0.382
  WS02006240           JUNCTION      0.06    24.44     0  03:02     0.00992        1.23       0.277
  WS02006243           JUNCTION      0.17    25.07     0  03:01      0.0269        1.21       0.179
  WS02006245           JUNCTION      0.07    25.27     0  03:01      0.0113        1.19       0.151
  WS02006247           JUNCTION      2.06    24.75     0  03:01       0.132        1.18       0.170
  WS02006248           JUNCTION      0.12    22.70     0  03:00      0.0192        1.05       0.048
  WS02006249           JUNCTION      0.19    23.19     0  03:00      0.0286        1.03       0.219
  WS02006251           JUNCTION      1.00    23.45     0  03:00       0.059           1       0.091
  WS02006253           JUNCTION      0.11    21.98     0  02:59      0.0173       0.963      -0.027
  WS02618401           JUNCTION      0.00     0.00     0  00:00           0           0       0.000 ltr
  WS8802               JUNCTION      0.00     0.00     0  00:00           0           0       0.000 ltr
  WSA1649              JUNCTION      0.00     0.00     0  00:00           0           0       0.000 ltr
  WSF200               JUNCTION      0.14    53.37     0  02:59      0.0216        2.88      -0.024
  XR-Inflow            JUNCTION     95.30    95.30     0  03:00        8.02        8.02       0.279
  WS02004114           JUNCTION      0.57    41.41     0  01:56      0.0916        4.83       0.458
  outfall-2            OUTFALL       0.00     0.00     0  00:00           0           0       0.000 ltr
  outfall-5            OUTFALL       0.00     0.00     0  00:00           0           0       0.000 ltr
  outfall-14           OUTFALL       0.00     0.00     0  00:00           0           0       0.000 ltr
  outfall-16           OUTFALL       0.00     0.00     0  00:00           0           0       0.000 ltr
  12                   OUTFALL       0.00    88.30     0  03:02           0        8.34       0.000
  XR-storage           STORAGE       0.00    41.34     0  01:56           0        4.81       0.979
  CC-storage           STORAGE      10.87    10.87     0  03:00       0.805       0.805       0.001
  JK-storage           STORAGE      10.73    10.73     0  03:01        0.72        0.72      -0.004
  
  
  **********************
  Node Surcharge Summary
  **********************
  
  Surcharging occurs when water rises above the top of the highest conduit.
  ---------------------------------------------------------------------
                                               Max. Height   Min. Depth
                                   Hours       Above Crown    Below Rim
  Node                 Type      Surcharged         Meters       Meters
  ---------------------------------------------------------------------
  WS01000070           JUNCTION        4.00          0.000        0.000
  WS01000323           JUNCTION        4.00          0.000        0.000
  WS01000533           JUNCTION        4.00          0.000        2.147
  WS01005172           JUNCTION        4.00          0.000        0.000
  WS01005181           JUNCTION        4.00          0.000        0.000
  WS01009841           JUNCTION        4.00          0.000        0.000
  WS02000078           JUNCTION        4.00          0.000        0.000
  WS02000112           JUNCTION        4.00          0.000        0.000
  WS02000136           JUNCTION        4.00          0.000        0.000
  WS02004053           JUNCTION        4.00          0.000        0.000
  WS02004997           JUNCTION        3.88          6.000        0.000
  WS02006183           JUNCTION        4.00          0.000        0.000
  WS02618401           JUNCTION        4.00          0.000        0.000
  WS8802               JUNCTION        4.00          0.000        4.942
  WSA1649              JUNCTION        4.00          0.000        0.000
  XR-Inflow            JUNCTION        3.87          5.650        0.000
  WS02004114           JUNCTION        3.88          6.167        0.348
  XR-storage           STORAGE         3.96          7.292        0.000
  
  
  *********************
  Node Flooding Summary
  *********************
  
  Flooding refers to all water that overflows a node, whether it ponds or not.
  --------------------------------------------------------------------------
                                                             Total   Maximum
                                 Maximum   Time of Max       Flood    Ponded
                        Hours       Rate    Occurrence      Volume     Depth
  Node                 Flooded       MLD   days hr:min    10^6 ltr    Meters
  --------------------------------------------------------------------------
  WS02004997              0.01      2.84      0  01:56       0.000     0.000
  XR-Inflow               2.06     63.73      0  03:00       3.291     0.000
  JK-storage              2.18     10.73      0  03:01       0.585     0.000
  
  
  **********************
  Storage Volume Summary
  **********************
  
  --------------------------------------------------------------------------------------------------
                         Average     Avg  Evap Exfil       Maximum     Max    Time of Max    Maximum
                          Volume    Pcnt  Pcnt  Pcnt        Volume    Pcnt     Occurrence    Outflow
  Storage Unit           1000 m3    Full  Loss  Loss       1000 m3    Full    days hr:min        MLD
  --------------------------------------------------------------------------------------------------
  XR-storage               0.051      82     0     0         0.063     100       0  01:56      32.48
  CC-storage               0.099      62     0     0         0.142      89       0  02:18      17.28
  JK-storage               0.110      81     0     0         0.136     100       0  01:49       0.00
  
  
  ***********************
  Outfall Loading Summary
  ***********************
  
  ---------------------------------------------------------------------------------------------------------------------------------
                         Flow       Avg       Max       Total         Total         Total         Total         Total         Total
                         Freq      Flow      Flow      Volume           COD         NH3-N            TN            TP            SS
  Outfall Node           Pcnt       MLD       MLD    10^6 ltr            kg            kg            kg            kg            kg
  ---------------------------------------------------------------------------------------------------------------------------------
  outfall-2              0.00      0.00      0.00       0.000         0.000         0.000         0.000         0.000         0.000
  outfall-5              0.00      0.00      0.00       0.000         0.000         0.000         0.000         0.000         0.000
  outfall-14             0.00      0.00      0.00       0.000         0.000         0.000         0.000         0.000         0.000
  outfall-16             0.00      0.00      0.00       0.000         0.000         0.000         0.000         0.000         0.000
  12                    99.98     55.71     88.30       8.340      1150.746         0.000         0.000         0.000         0.000
  ---------------------------------------------------------------------------------------------------------------------------------
  System                20.00     55.71     88.30       8.340      1150.746         0.000         0.000         0.000         0.000
  
  
  ********************
  Link Flow Summary
  ********************
  
  -----------------------------------------------------------------------------
                                 Maximum  Time of Max   Maximum    Max/    Max/
                                  |Flow|   Occurrence   |Veloc|    Full    Full
  Link                 Type          MLD  days hr:min     m/sec    Flow   Depth
  -----------------------------------------------------------------------------
  WSL49                CONDUIT     93.39     0  03:01      2.04    1.16    0.52
  WSL1465              CONDUIT     36.17     0  03:24      1.65    0.33    0.53
  WSL1472              CONDUIT     78.72     0  02:59      1.74    0.90    0.48
  WSL1475              CONDUIT    100.31     0  03:20      2.60    1.07    0.35
  WSL1476              CONDUIT      5.83     0  03:04      0.45    0.03    0.47
  WSL1477              CONDUIT      6.64     0  03:03      1.93    0.26    0.20
  WSL1490              CONDUIT     33.81     0  01:39      1.38    0.55    0.42
  WSL1491              CONDUIT     34.12     0  03:03      1.44    0.20    0.44
  WSL1492              CONDUIT     34.74     0  03:03      1.38    0.54    0.49
  WSL1507              CONDUIT      0.07     0  03:03      0.13    0.00    0.13
  WSL1508              CONDUIT      3.20     0  03:01      0.69    0.09    0.16
  WSL1512              CONDUIT      3.20     0  03:02      0.49    0.02    0.15
  WSL1513              CONDUIT      3.27     0  03:03      0.41    0.19    0.24
  WSL1515              CONDUIT     55.76     0  02:58      2.32    0.54    0.30
  WSL1516              CONDUIT      5.81     0  03:04      3.24    0.02    0.13
  WSL1518              CONDUIT      5.73     0  03:01      0.69    0.11    0.25
  WSL1519              CONDUIT      5.73     0  03:02      0.67    0.14    0.25
  WSL1521              CONDUIT      5.76     0  03:03      0.73    0.17    0.24
  WSL1543              CONDUIT      5.72     0  03:02      0.65    0.18    0.26
  WSL1961              CONDUIT     33.23     0  01:20      3.05    0.07    0.28
  WSL1964              CONDUIT     33.63     0  01:38      1.38    0.18    0.34
  WSL2010              CONDUIT     34.35     0  03:10      1.26    0.44    0.44
  WSL2011              CONDUIT     34.11     0  03:08      1.13    0.22    0.48
  WSL2012              CONDUIT     34.30     0  03:10      0.99    0.52    0.53
  WSL2013              CONDUIT     35.42     0  03:10      1.05    0.88    0.51
  WSL2014              CONDUIT     38.64     0  02:56      1.19    0.62    0.49
  WSL2015              CONDUIT     38.66     0  02:56      1.24    0.52    0.47
  WSL2016              CONDUIT     41.00     0  02:56      1.37    0.47    0.45
  WSL2017              CONDUIT     41.15     0  02:57      1.48    0.50    0.43
  WSL2018              CONDUIT     44.42     0  02:57      1.94    0.26    0.37
  WSL2019              CONDUIT     44.86     0  02:58      1.81    0.26    0.42
  WSL2028              CONDUIT     34.49     0  03:09      1.23    0.37    0.44
  WSL2029              CONDUIT     41.45     0  02:57      1.73    0.52    0.39
  WSL2038              CONDUIT      4.98     0  02:59      0.61    0.25    0.44
  WSL2039              CONDUIT      8.16     0  02:49      1.33    0.42    0.49
  WSL2041              CONDUIT      5.07     0  02:49      0.83    0.25    0.46
  WSL2294              CONDUIT     31.49     0  03:07      1.17    1.06    0.60
  WSL2295              CONDUIT     31.98     0  03:07      1.38    1.44    0.53
  WSL2296              CONDUIT     34.71     0  03:07      1.89    0.20    0.44
  WSL2297              CONDUIT     34.60     0  03:08      1.25    0.66    0.44
  WSL2298              CONDUIT     34.31     0  03:07      2.15    1.58    0.40
  WSL2301              CONDUIT     34.52     0  03:08      1.27    0.32    0.43
  WSL2302              CONDUIT     34.63     0  03:09      1.24    0.43    0.43
  WSL2441              CONDUIT     31.29     0  03:07      1.13    0.80    0.63
  WSL2442              CONDUIT     26.79     0  03:05      1.27    0.69    0.67
  WSL2443              CONDUIT     27.29     0  03:05      1.43    0.43    0.57
  WSL2444              CONDUIT     27.06     0  03:04      1.70    0.43    0.49
  WSL2446              CONDUIT     25.14     0  03:04      1.65    0.43    0.47
  WSL2447              CONDUIT     24.69     0  03:04      1.49    1.27    0.51
  WSL2448              CONDUIT     24.59     0  03:03      1.33    0.69    0.55
  WSL2449              CONDUIT     24.48     0  03:03      1.24    0.85    0.58
  WSL2450              CONDUIT     24.28     0  03:03      1.24    0.50    0.57
  WSL2451              CONDUIT     24.38     0  03:02      1.21    1.59    0.59
  WSL2452              CONDUIT     24.66     0  03:02      1.27    0.47    0.58
  WSL2454              CONDUIT     24.93     0  03:01      1.46    0.58    0.53
  WSL2478              CONDUIT     25.20     0  03:01      1.33    0.89    0.55
  WSL2479              CONDUIT     22.70     0  03:01      1.24    0.43    0.54
  WSL2480              CONDUIT     22.59     0  03:00      1.27    1.05    0.53
  WSL2482              CONDUIT     23.04     0  03:00      1.22    0.60    0.55
  WSL2484              CONDUIT     22.47     0  03:00      1.86    0.32    0.49
  WSL2493              CONDUIT     27.20     0  03:05      1.09    0.46    0.62
  WSL2867              CONDUIT     53.25     0  02:59      3.33    0.11    0.22
  WSL2868              CONDUIT     49.82     0  02:59      1.69    0.09    0.34
  WSL348               CONDUIT     40.50     0  01:56      1.86    0.37    1.00
  WSL175               CONDUIT     40.84     0  01:56      2.30    1.38    1.00
  WSL1467              CONDUIT     78.91     0  02:59      1.64    0.42    0.50
  WSL1473              CONDUIT     81.54     0  03:16      1.90    0.33    0.50
  XRpipe               CONDUIT     41.34     0  01:56      2.53    0.10    1.00
  8                    CONDUIT      0.00     0  00:00      0.00    0.00    0.00
  19                   CONDUIT      0.00     0  00:00      0.00    0.00    0.00
  17                   CONDUIT      0.00     0  00:00      0.00    0.00    0.00
  4                    CONDUIT      0.00     0  00:00      0.00    0.00    0.00
  2                    CONDUIT     88.30     0  03:02      3.62    0.32    0.39
  XR-Pump-1            PUMP         8.12     0  00:08              1.00
  XR-Pump-3            PUMP         8.12     0  00:09              1.00
  XR-Pump-2            PUMP         8.12     0  00:09              1.00
  XR-Pump-4            PUMP         8.12     0  01:20              1.00
  CC-Pump-1            PUMP        17.28     0  01:33              1.00
  CC-Pump-2            PUMP         0.00     0  00:00              0.00
  JK-Pump-1            PUMP         0.00     0  00:00              0.00
  JK-Pump-2            PUMP         0.00     0  00:00              0.00
  
  
  ***************************
  Flow Classification Summary
  ***************************
  
  -------------------------------------------------------------------------------------
                      Adjusted    ---------- Fraction of Time in Flow Class ---------- 
                       /Actual         Up    Down  Sub   Sup   Up    Down  Norm  Inlet 
  Conduit               Length    Dry  Dry   Dry   Crit  Crit  Crit  Crit  Ltd   Ctrl  
  -------------------------------------------------------------------------------------
  WSL49                   1.00   0.00  0.00  0.00  1.00  0.00  0.00  0.00  0.00  0.00
  WSL1465                 1.00   0.00  0.00  0.00  1.00  0.00  0.00  0.00  0.10  0.00
  WSL1472                 1.00   0.00  0.00  0.00  1.00  0.00  0.00  0.00  0.00  0.00
  WSL1475                 1.00   0.00  0.00  0.00  0.12  0.88  0.00  0.00  0.00  0.00
  WSL1476                 1.00   0.00  0.00  0.00  1.00  0.00  0.00  0.00  1.00  0.00
  WSL1477                 1.00   0.00  0.00  0.00  0.00  1.00  0.00  0.00  0.32  0.00
  WSL1490                 1.00   0.00  0.00  0.00  1.00  0.00  0.00  0.00  0.00  0.00
  WSL1491                 1.00   0.00  0.00  0.00  1.00  0.00  0.00  0.00  0.04  0.00
  WSL1492                 1.00   0.00  0.00  0.00  1.00  0.00  0.00  0.00  0.00  0.00
  WSL1507                 1.00   0.00  0.00  0.00  1.00  0.00  0.00  0.00  0.78  0.00
  WSL1508                 1.00   0.00  0.00  0.00  1.00  0.00  0.00  0.00  0.00  0.00
  WSL1512                 1.00   0.00  0.00  0.00  1.00  0.00  0.00  0.00  1.00  0.00
  WSL1513                 1.00   0.00  0.00  0.00  1.00  0.00  0.00  0.00  0.00  0.00
  WSL1515                 1.00   0.00  0.00  0.00  0.11  0.89  0.00  0.00  0.04  0.00
  WSL1516                 1.00   0.00  0.00  0.00  0.00  1.00  0.00  0.00  1.00  0.00
  WSL1518                 1.00   0.00  0.00  0.00  1.00  0.00  0.00  0.00  0.67  0.00
  WSL1519                 1.00   0.00  0.00  0.00  1.00  0.00  0.00  0.00  0.35  0.00
  WSL1521                 1.00   0.00  0.00  0.00  1.00  0.00  0.00  0.00  0.02  0.00
  WSL1543                 1.00   0.00  0.00  0.00  1.00  0.00  0.00  0.00  0.02  0.00
  WSL1961                 1.00   0.00  0.00  0.00  0.01  0.99  0.00  0.00  0.98  0.00
  WSL1964                 1.00   0.00  0.00  0.00  1.00  0.00  0.00  0.00  0.05  0.00
  WSL2010                 1.00   0.00  0.00  0.00  1.00  0.00  0.00  0.00  0.01  0.00
  WSL2011                 1.00   0.00  0.00  0.00  1.00  0.00  0.00  0.00  0.27  0.00
  WSL2012                 1.00   0.00  0.00  0.00  1.00  0.00  0.00  0.00  0.01  0.00
  WSL2013                 1.00   0.00  0.00  0.00  1.00  0.00  0.00  0.00  0.00  0.00
  WSL2014                 1.00   0.00  0.00  0.00  1.00  0.00  0.00  0.00  0.00  0.00
  WSL2015                 1.00   0.00  0.00  0.00  1.00  0.00  0.00  0.00  0.02  0.00
  WSL2016                 1.00   0.00  0.00  0.00  1.00  0.00  0.00  0.00  0.01  0.00
  WSL2017                 1.00   0.00  0.00  0.00  1.00  0.00  0.00  0.00  0.04  0.00
  WSL2018                 1.00   0.00  0.00  0.00  0.01  0.99  0.00  0.00  0.19  0.00
  WSL2019                 1.00   0.00  0.00  0.00  0.36  0.64  0.00  0.00  0.10  0.00
  WSL2028                 1.00   0.00  0.00  0.00  1.00  0.00  0.00  0.00  0.06  0.00
  WSL2029                 1.00   0.00  0.00  0.00  0.53  0.47  0.00  0.00  0.00  0.00
  WSL2038                 1.00   0.00  0.00  0.00  1.00  0.00  0.00  0.00  0.02  0.00
  WSL2039                 1.00   0.00  0.00  0.00  0.89  0.11  0.00  0.00  0.01  0.00
  WSL2041                 1.00   0.00  0.00  0.00  1.00  0.00  0.00  0.00  0.35  0.00
  WSL2294                 1.00   0.00  0.00  0.00  1.00  0.00  0.00  0.00  0.00  0.00
  WSL2295                 1.00   0.00  0.00  0.00  1.00  0.00  0.00  0.00  0.00  0.00
  WSL2296                 1.00   0.00  0.00  0.00  0.23  0.77  0.00  0.00  0.82  0.00
  WSL2297                 1.00   0.00  0.00  0.00  1.00  0.00  0.00  0.00  0.00  0.00
  WSL2298                 1.00   0.00  0.00  0.00  0.05  0.95  0.00  0.00  0.00  0.00
  WSL2301                 1.00   0.00  0.00  0.00  1.00  0.00  0.00  0.00  0.08  0.00
  WSL2302                 1.00   0.00  0.00  0.00  1.00  0.00  0.00  0.00  0.06  0.00
  WSL2441                 1.00   0.00  0.00  0.00  1.00  0.00  0.00  0.00  0.01  0.00
  WSL2442                 1.00   0.00  0.00  0.00  1.00  0.00  0.00  0.00  0.22  0.00
  WSL2443                 1.00   0.00  0.00  0.00  1.00  0.00  0.00  0.00  0.68  0.00
  WSL2444                 1.00   0.00  0.00  0.00  0.02  0.98  0.00  0.00  0.48  0.00
  WSL2446                 1.00   0.00  0.00  0.00  0.11  0.89  0.00  0.00  0.29  0.00
  WSL2447                 1.00   0.00  0.00  0.00  1.00  0.00  0.00  0.00  0.00  0.00
  WSL2448                 1.00   0.00  0.00  0.00  1.00  0.00  0.00  0.00  0.03  0.00
  WSL2449                 1.00   0.00  0.00  0.00  1.00  0.00  0.00  0.00  0.02  0.00
  WSL2450                 1.00   0.00  0.00  0.00  1.00  0.00  0.00  0.00  0.53  0.00
  WSL2451                 1.00   0.00  0.00  0.00  1.00  0.00  0.00  0.00  0.00  0.00
  WSL2452                 1.00   0.00  0.00  0.00  1.00  0.00  0.00  0.00  0.70  0.00
  WSL2454                 1.00   0.00  0.00  0.00  0.99  0.01  0.00  0.00  0.09  0.00
  WSL2478                 1.00   0.00  0.00  0.00  1.00  0.00  0.00  0.00  0.00  0.00
  WSL2479                 1.00   0.00  0.00  0.00  1.00  0.00  0.00  0.00  0.66  0.00
  WSL2480                 1.00   0.00  0.00  0.00  1.00  0.00  0.00  0.00  0.00  0.00
  WSL2482                 1.00   0.00  0.00  0.00  1.00  0.00  0.00  0.00  0.71  0.00
  WSL2484                 1.00   0.00  0.00  0.00  0.98  0.02  0.00  0.00  0.73  0.00
  WSL2493                 1.00   0.00  0.00  0.00  1.00  0.00  0.00  0.00  0.05  0.00
  WSL2867                 1.00   0.00  0.00  0.00  0.00  1.00  0.00  0.00  0.21  0.00
  WSL2868                 1.00   0.00  0.00  0.00  0.98  0.02  0.00  0.00  0.98  0.00
  WSL348                  1.00   0.00  0.00  0.00  1.00  0.00  0.00  0.00  0.01  0.00
  WSL175                  1.00   0.00  0.00  0.00  1.00  0.00  0.00  0.00  0.00  0.00
  WSL1467                 1.00   0.00  0.00  0.00  1.00  0.00  0.00  0.00  0.05  0.00
  WSL1473                 1.00   0.00  0.00  0.00  1.00  0.00  0.00  0.00  0.05  0.00
  XRpipe                  1.00   0.00  0.00  0.00  1.00  0.00  0.00  0.00  0.00  0.00
  8                       1.00   1.00  0.00  0.00  0.00  0.00  0.00  0.00  0.00  0.00
  19                      1.00   1.00  0.00  0.00  0.00  0.00  0.00  0.00  0.00  0.00
  17                      1.00   1.00  0.00  0.00  0.00  0.00  0.00  0.00  0.00  0.00
  4                       1.00   1.00  0.00  0.00  0.00  0.00  0.00  0.00  0.00  0.00
  2                       1.00   0.00  0.00  0.00  0.00  1.00  0.00  0.00  0.21  0.00
  
  
  *************************
  Conduit Surcharge Summary
  *************************
  
  ----------------------------------------------------------------------------
                                                           Hours        Hours 
                         --------- Hours Full --------   Above Full   Capacity
  Conduit                Both Ends  Upstream  Dnstream   Normal Flow   Limited
  ----------------------------------------------------------------------------
  WSL49                       0.01      0.01      0.01      0.21         0.01
  WSL1475                     0.01      0.01      0.01      0.01         0.01
  WSL2294                     0.01      0.01      0.01      0.15         0.01
  WSL2295                     0.01      0.01      0.01      0.64         0.01
  WSL2298                     0.01      0.01      0.01      0.79         0.01
  WSL2447                     0.01      0.01      0.01      0.64         0.01
  WSL2451                     0.01      0.01      0.01      0.86         0.01
  WSL2480                     0.01      0.01      0.01      0.05         0.01
  WSL348                      3.87      3.87      3.88      0.01         0.01
  WSL175                      3.88      3.88      3.88      2.45         2.53
  XRpipe                      3.88      3.88      3.96      0.01         0.01
  
  
  ***************
  Pumping Summary
  ***************
  
  ---------------------------------------------------------------------------------------------------------
                                                  Min       Avg       Max     Total     Power    % Time Off
                        Percent   Number of      Flow      Flow      Flow    Volume     Usage    Pump Curve
  Pump                 Utilized   Start-Ups       MLD       MLD       MLD  10^6 ltr     Kw-hr    Low   High
  ---------------------------------------------------------------------------------------------------------
  XR-Pump-1               96.39           1      0.00      8.12      8.12     1.305      6.89    0.0   53.5
  XR-Pump-3               91.52          17      0.00      8.12      8.12     1.239      6.40    0.0   56.3
  XR-Pump-2               96.26           1      0.00      8.12      8.12     1.303      6.88    0.0   53.5
  XR-Pump-4               63.30          13      0.00      8.12      8.12     0.857      3.55    0.0   81.4
  CC-Pump-1               24.69           7      0.00     17.28     17.28     0.711      1.81    0.0    0.0
  CC-Pump-2                0.00           0      0.00      0.00      0.00     0.000      0.00    0.0    0.0
  JK-Pump-1                0.00           0      0.00      0.00      0.00     0.000      0.00    0.0    0.0
  JK-Pump-2                0.00           0      0.00      0.00      0.00     0.000      0.00    0.0    0.0
  
  
  ***************************
  Link Pollutant Load Summary
  ***************************
  
  ------------------------------------------------------------------------------------------
                                 COD         NH3-N            TN            TP            SS
  Link                            kg            kg            kg            kg            kg
  ------------------------------------------------------------------------------------------
  WSL49                     1116.761         0.000         0.000         0.000         0.000
  WSL1465                    646.798         0.000         0.000         0.000         0.000
  WSL1472                   1065.757         0.000         0.000         0.000         0.000
  WSL1475                   1135.466         0.000         0.000         0.000         0.000
  WSL1476                     48.240         0.000         0.000         0.000         0.000
  WSL1477                     46.208         0.000         0.000         0.000         0.000
  WSL1490                    632.332         0.000         0.000         0.000         0.000
  WSL1491                    636.352         0.000         0.000         0.000         0.000
  WSL1492                    643.026         0.000         0.000         0.000         0.000
  WSL1507                      0.509         0.000         0.000         0.000         0.000
  WSL1508                     27.212         0.000         0.000         0.000         0.000
  WSL1512                     27.623         0.000         0.000         0.000         0.000
  WSL1513                     29.205         0.000         0.000         0.000         0.000
  WSL1515                    408.001         0.000         0.000         0.000         0.000
  WSL1516                     46.957         0.000         0.000         0.000         0.000
  WSL1518                     43.567         0.000         0.000         0.000         0.000
  WSL1519                     44.275         0.000         0.000         0.000         0.000
  WSL1521                     45.360         0.000         0.000         0.000         0.000
  WSL1543                     43.855         0.000         0.000         0.000         0.000
  WSL1961                    619.449         0.000         0.000         0.000         0.000
  WSL1964                    628.298         0.000         0.000         0.000         0.000
  WSL2010                    264.736         0.000         0.000         0.000         0.000
  WSL2011                    269.892         0.000         0.000         0.000         0.000
  WSL2012                    275.406         0.000         0.000         0.000         0.000
  WSL2013                    285.948         0.000         0.000         0.000         0.000
  WSL2014                    339.857         0.000         0.000         0.000         0.000
  WSL2015                    341.586         0.000         0.000         0.000         0.000
  WSL2016                    374.397         0.000         0.000         0.000         0.000
  WSL2017                    377.148         0.000         0.000         0.000         0.000
  WSL2018                    399.982         0.000         0.000         0.000         0.000
  WSL2019                    402.245         0.000         0.000         0.000         0.000
  WSL2028                    260.143         0.000         0.000         0.000         0.000
  WSL2029                    382.584         0.000         0.000         0.000         0.000
  WSL2038                     19.527         0.000         0.000         0.000         0.000
  WSL2039                     29.561         0.000         0.000         0.000         0.000
  WSL2041                     24.587         0.000         0.000         0.000         0.000
  WSL2294                    241.013         0.000         0.000         0.000         0.000
  WSL2295                    241.847         0.000         0.000         0.000         0.000
  WSL2296                    250.858         0.000         0.000         0.000         0.000
  WSL2297                    254.175         0.000         0.000         0.000         0.000
  WSL2298                    245.236         0.000         0.000         0.000         0.000
  WSL2301                    255.079         0.000         0.000         0.000         0.000
  WSL2302                    259.840         0.000         0.000         0.000         0.000
  WSL2441                    240.156         0.000         0.000         0.000         0.000
  WSL2442                    170.332         0.000         0.000         0.000         0.000
  WSL2443                    169.064         0.000         0.000         0.000         0.000
  WSL2444                    165.916         0.000         0.000         0.000         0.000
  WSL2446                    163.989         0.000         0.000         0.000         0.000
  WSL2447                    160.748         0.000         0.000         0.000         0.000
  WSL2448                    157.190         0.000         0.000         0.000         0.000
  WSL2449                    153.636         0.000         0.000         0.000         0.000
  WSL2450                    151.192         0.000         0.000         0.000         0.000
  WSL2451                    149.892         0.000         0.000         0.000         0.000
  WSL2452                    148.270         0.000         0.000         0.000         0.000
  WSL2454                    143.988         0.000         0.000         0.000         0.000
  WSL2478                    142.286         0.000         0.000         0.000         0.000
  WSL2479                    128.879         0.000         0.000         0.000         0.000
  WSL2480                    125.708         0.000         0.000         0.000         0.000
  WSL2482                    121.215         0.000         0.000         0.000         0.000
  WSL2484                    110.820         0.000         0.000         0.000         0.000
  WSL2493                    172.945         0.000         0.000         0.000         0.000
  WSL2867                    409.493         0.000         0.000         0.000         0.000
  WSL2868                    413.304         0.000         0.000         0.000         0.000
  WSL348                     600.733         0.000         0.000         0.000         0.000
  WSL175                     607.970         0.000         0.000         0.000         0.000
  WSL1467                   1060.778         0.000         0.000         0.000         0.000
  WSL1473                   1069.599         0.000         0.000         0.000         0.000
  XRpipe                     621.502         0.000         0.000         0.000         0.000
  8                            0.000         0.000         0.000         0.000         0.000
  19                           0.000         0.000         0.000         0.000         0.000
  17                           0.000         0.000         0.000         0.000         0.000
  4                            0.000         0.000         0.000         0.000         0.000
  2                         1150.746         0.000         0.000         0.000         0.000
  XR-Pump-1                  173.152         0.000         0.000         0.000         0.000
  XR-Pump-3                  162.138         0.000         0.000         0.000         0.000
  XR-Pump-2                  172.838         0.000         0.000         0.000         0.000
  XR-Pump-4                   99.398         0.000         0.000         0.000         0.000
  CC-Pump-1                   83.000         0.000         0.000         0.000         0.000
  CC-Pump-2                    0.000         0.000         0.000         0.000         0.000
  JK-Pump-1                    0.000         0.000         0.000         0.000         0.000
  JK-Pump-2                    0.000         0.000         0.000         0.000         0.000
  

  Analysis begun on:  Tue Dec 17 17:12:47 2019
  Analysis ended on:  Tue Dec 17 17:12:47 2019
  Total elapsed time: < 1 sec