
  EPA STORM WATER MANAGEMENT MODEL - VERSION 5.1 (Build 5.3.0.dev0)
  --------------------------------------------------------------

  
  *********************************************************
  NOTE: The summary statistics displayed in this report are
  based on results found at every computational time step,  
  not just on results from each reporting time step.
  *********************************************************
  
  ****************
  Analysis Options
  ****************
  Flow Units ............... MLD
  Process Models:
    Rainfall/Runoff ........ YES
    RDII ................... NO
    Snowmelt ............... NO
    Groundwater ............ NO
    Flow Routing ........... YES
    Ponding Allowed ........ NO
    Water Quality .......... YES
  Infiltration Method ...... GREEN_AMPT
  Flow Routing Method ...... DYNWAVE
  Surcharge Method ......... EXTRAN
  Starting Date ............ 08/28/2015 08:00:00
  Ending Date .............. 08/28/2015 12:00:00
  Antecedent Dry Days ...... 4.0
  Report Time Step ......... 00:01:00
  Wet Time Step ............ 00:01:00
  Dry Time Step ............ 00:01:00
  Routing Time Step ........ 5.00 sec
  Variable Time Step ....... YES
  Maximum Trials ........... 8
  Number of Threads ........ 1
  Head Tolerance ........... 0.001500 m
  
  
  **************************        Volume         Depth
  Runoff Quantity Continuity     hectare-m            mm
  **************************     ---------       -------
  Total Precipitation ......         3.794        13.452
  Evaporation Loss .........         0.000         0.000
  Infiltration Loss ........         1.773         6.285
  Surface Runoff ...........         0.836         2.964
  Final Storage ............         1.187         4.209
  Continuity Error (%) .....        -0.055
  
  
  **************************           COD         NH3-N            TN            TP            SS
  Runoff Quality Continuity             kg            kg            kg            kg            kg
  **************************    ----------    ----------    ----------    ----------    ----------
  Initial Buildup ..........     13074.240         0.000         0.000         0.000         0.000
  Surface Buildup ..........       112.842         0.000         0.000         0.000         0.000
  Wet Deposition ...........         0.000         0.000         0.000         0.000         0.000
  Sweeping Removal .........         0.000         0.000         0.000         0.000         0.000
  Infiltration Loss ........        98.260         0.000         0.000         0.000         0.000
  BMP Removal ..............         0.000         0.000         0.000         0.000         0.000
  Surface Runoff ...........      1002.595         0.000         0.000         0.000         0.000
  Remaining Buildup ........     12084.894         0.000         0.000         0.000         0.000
  Continuity Error (%) .....         0.010         0.000         0.000         0.000         0.000
  
  
  **************************        Volume        Volume
  Flow Routing Continuity        hectare-m      10^6 ltr
  **************************     ---------     ---------
  Dry Weather Inflow .......         0.000         0.000
  Wet Weather Inflow .......         0.833         8.334
  Groundwater Inflow .......         0.000         0.000
  RDII Inflow ..............         0.000         0.000
  External Inflow ..........         0.561         5.611
  External Outflow .........         0.861         8.609
  Flooding Loss ............         0.440         4.401
  Evaporation Loss .........         0.000         0.000
  Exfiltration Loss ........         0.000         0.000
  Initial Stored Volume ....         0.000         0.000
  Final Stored Volume ......         0.093         0.935
  Continuity Error (%) .....        -0.001
  
  
  **************************           COD         NH3-N            TN            TP            SS
  Quality Routing Continuity            kg            kg            kg            kg            kg
  **************************    ----------    ----------    ----------    ----------    ----------
  Dry Weather Inflow .......         0.000         0.000         0.000         0.000         0.000
  Wet Weather Inflow .......      1000.119         0.000         0.000         0.000         0.000
  Groundwater Inflow .......         0.000         0.000         0.000         0.000         0.000
  RDII Inflow ..............         0.000         0.000         0.000         0.000         0.000
  External Inflow ..........       937.071         0.000         0.000         0.000         0.000
  External Outflow .........      1268.307         0.000         0.000         0.000         0.000
  Flooding Loss ............       558.662         0.000         0.000         0.000         0.000
  Exfiltration Loss ........         0.000         0.000         0.000         0.000         0.000
  Mass Reacted .............         0.000         0.000         0.000         0.000         0.000
  Initial Stored Mass ......         0.000         0.000         0.000         0.000         0.000
  Final Stored Mass ........       112.481         0.000         0.000         0.000         0.000
  Continuity Error (%) .....        -0.117         0.000         0.000         0.000         0.000
  
  
  *************************
  Highest Continuity Errors
  *************************
  Node WS02005193 (1.29%)
  Node WS02003099 (1.27%)
  Node WS02005196 (1.23%)
  Node WS02003094 (1.02%)
  
  
  ***************************
  Time-Step Critical Elements
  ***************************
  Link WSL2448 (38.76%)
  Link WSL1477 (31.38%)
  Link WSL1516 (26.38%)
  
  
  ********************************
  Highest Flow Instability Indexes
  ********************************
  Link WSL1477 (116)
  Link WSL1516 (114)
  Link XRpipe (22)
  Link WSL175 (21)
  Link WSL1515 (20)
  
  
  *************************
  Routing Time Step Summary
  *************************
  Minimum Time Step           :     1.34 sec
  Average Time Step           :     2.97 sec
  Maximum Time Step           :     5.00 sec
  Percent in Steady State     :     0.00
  Average Iterations per Step :     3.54
  Percent Not Converging      :    15.35
  
  
  ***************************
  Subcatchment Runoff Summary
  ***************************
  
  ------------------------------------------------------------------------------------------------------------------------------
                            Total      Total      Total      Total     Imperv       Perv      Total       Total     Peak  Runoff
                           Precip      Runon       Evap      Infil     Runoff     Runoff     Runoff      Runoff   Runoff   Coeff
  Subcatchment                 mm         mm         mm         mm         mm         mm         mm    10^6 ltr      MLD
  ------------------------------------------------------------------------------------------------------------------------------
  1                         13.45      12.40       0.00       8.07       6.11       4.18      10.29        0.12     2.82   0.398
  2                         13.45       0.00       0.00       6.67       3.17       0.75       3.92        0.13     3.47   0.292
  3                         13.45       0.00       0.00       6.69       3.12       0.62       3.75        0.19     4.90   0.279
  4                         13.45       0.00       0.00       6.66       3.20       0.83       4.02        0.11     2.85   0.299
  5                         13.45       9.72       0.00       7.95       5.51       3.19       8.70        0.15     3.49   0.376
  6                         13.45       0.00       0.00       6.69       3.13       0.63       3.76        0.19     4.77   0.280
  7                         13.45       0.00       0.00       5.78       3.20       0.00       3.20        5.13    97.63   0.238
  8                         13.45       0.00       0.00       6.68       3.15       0.68       3.82        0.16     4.20   0.284
  9                         13.45       3.76       0.00       7.26       4.02       1.26       5.28        0.20     4.90   0.306
  17                        13.45       0.00       0.00       6.68       3.16       0.72       3.88        0.14     3.72   0.289
  18                        13.45       0.00       0.00       6.68       3.14       0.67       3.81        0.17     4.28   0.284
  28                        13.45      11.49       0.00       8.11       5.79       2.94       8.73        0.23     5.12   0.350
  29                        13.45       4.81       0.00       7.27       4.25       1.62       5.88        0.14     3.43   0.322
  30                        13.45      14.85       0.00       8.39       6.81       5.71      12.52        0.12     2.70   0.442
  31                        13.45       0.00       0.00       6.67       3.17       0.73       3.90        0.14     3.62   0.290
  33                        13.45       0.00       0.00       6.57       3.28       1.30       4.58        0.04     1.13   0.340
  34                        13.45       8.36       0.00       7.82       5.17       2.64       7.81        0.16     3.86   0.358
  35                        13.45       0.00       0.00       6.66       3.19       0.78       3.97        0.12     3.17   0.295
  36                        13.45       7.53       0.00       7.78       4.78       1.56       6.34        0.37     8.56   0.302
  39                        13.45       0.00       0.00       6.67       3.17       0.74       3.92        0.13     3.50   0.291
  40                        13.45       2.06       0.00       7.01       3.63       0.98       4.61        0.18     4.54   0.297
  41                        13.45       0.00       0.00       6.64       3.23       0.94       4.17        0.08     2.19   0.310
  42                        13.45       0.00       0.00       6.65       3.21       0.88       4.09        0.09     2.50   0.304
  43                        13.45       0.00       0.00       6.48       3.31       1.78       5.09        0.02     0.55   0.378
  44                        13.45     105.56       0.00      12.64      28.98      55.89      84.87        0.31     6.22   0.713
  45                        13.45       0.00       0.00       6.59       3.27       1.21       4.48        0.05     1.29   0.333
  46                        13.45       6.29       0.00       7.54       4.66       2.10       6.77        0.14     3.52   0.343
  47                        13.45       0.00       0.00       6.59       3.27       1.18       4.45        0.05     1.38   0.330
  48                        13.45       3.12       0.00       7.09       3.97       1.65       5.62        0.09     2.30   0.339
  55                        13.45       4.64       0.00       7.22       4.38       2.53       6.91        0.06     1.50   0.382
  56                        13.45       6.94       0.00       7.61       4.81       2.23       7.04        0.15     3.63   0.345
  57                        13.45       0.00       0.00       6.69       3.13       0.63       3.76        0.19     4.82   0.279
  59                        13.45       0.00       0.00       6.57       3.28       1.31       4.59        0.04     1.09   0.342
  60                        13.45      10.15       0.00       7.78       5.73       4.95      10.67        0.06     1.39   0.452
  61                        13.45       0.00       0.00       6.74       2.89       0.35       3.24        0.58    13.99   0.241
  62                        13.45       0.00       0.00       6.74       2.88       0.34       3.22        0.61    14.62   0.239
  64                        13.45       0.00       0.00       6.60       3.26       1.14       4.41        0.05     1.47   0.327
  
  
  ****************************
  Subcatchment Washoff Summary
  ****************************
  
  ------------------------------------------------------------------------------------------
                                 COD         NH3-N            TN            TP            SS
  Subcatchment                    kg            kg            kg            kg            kg
  ------------------------------------------------------------------------------------------
  1                           13.534         0.000         0.000         0.000         0.000
  2                            0.000         0.000         0.000         0.000         0.000
  3                            0.000         0.000         0.000         0.000         0.000
  4                           13.563         0.000         0.000         0.000         0.000
  5                           38.739         0.000         0.000         0.000         0.000
  6                           22.140         0.000         0.000         0.000         0.000
  7                          546.131         0.000         0.000         0.000         0.000
  8                           19.616         0.000         0.000         0.000         0.000
  9                           35.660         0.000         0.000         0.000         0.000
  17                          17.496         0.000         0.000         0.000         0.000
  18                          19.981         0.000         0.000         0.000         0.000
  28                          71.482         0.000         0.000         0.000         0.000
  29                          33.164         0.000         0.000         0.000         0.000
  30                          35.486         0.000         0.000         0.000         0.000
  31                          17.042         0.000         0.000         0.000         0.000
  33                           5.668         0.000         0.000         0.000         0.000
  34                          40.086         0.000         0.000         0.000         0.000
  35                          15.035         0.000         0.000         0.000         0.000
  36                          86.245         0.000         0.000         0.000         0.000
  39                          16.508         0.000         0.000         0.000         0.000
  40                          27.982         0.000         0.000         0.000         0.000
  41                          10.579         0.000         0.000         0.000         0.000
  42                          12.011         0.000         0.000         0.000         0.000
  43                           2.893         0.000         0.000         0.000         0.000
  44                          82.128         0.000         0.000         0.000         0.000
  45                           6.457         0.000         0.000         0.000         0.000
  46                          33.736         0.000         0.000         0.000         0.000
  47                           6.843         0.000         0.000         0.000         0.000
  48                          16.581         0.000         0.000         0.000         0.000
  55                          12.800         0.000         0.000         0.000         0.000
  56                          37.150         0.000         0.000         0.000         0.000
  57                          22.353         0.000         0.000         0.000         0.000
  59                           5.517         0.000         0.000         0.000         0.000
  60                          16.256         0.000         0.000         0.000         0.000
  61                          60.939         0.000         0.000         0.000         0.000
  62                          63.510         0.000         0.000         0.000         0.000
  64                           7.270         0.000         0.000         0.000         0.000
  ------------------------------------------------------------------------------------------
  System                    1472.582         0.000         0.000         0.000         0.000
  
  
  ******************
  Node Depth Summary
  ******************
  
  ---------------------------------------------------------------------------------
                                 Average  Maximum  Maximum  Time of Max    Reported
                                   Depth    Depth      HGL   Occurrence   Max Depth
  Node                 Type       Meters   Meters   Meters  days hr:min      Meters
  ---------------------------------------------------------------------------------
  WS01000070           JUNCTION     0.00     0.00     0.00     0  00:00        0.00
  WS01000323           JUNCTION     0.00     0.00     0.00     0  00:00        0.00
  WS01000533           JUNCTION     0.00     0.00     6.86     0  00:00        0.00
  WS01005172           JUNCTION     0.00     0.00     0.00     0  00:00        0.00
  WS01005181           JUNCTION     0.00     0.00     0.00     0  00:00        0.00
  WS01009841           JUNCTION     0.00     0.00     0.00     0  00:00        0.00
  WS02000078           JUNCTION     0.00     0.00     0.00     0  00:00        0.00
  WS02000112           JUNCTION     0.00     0.00     0.00     0  00:00        0.00
  WS02000136           JUNCTION     0.00     0.00     0.00     0  00:00        0.00
  WS02001211           JUNCTION     0.41     0.46     5.30     0  03:06        0.46
  WS02001212           JUNCTION     0.35     0.41     5.21     0  03:05        0.41
  WS02001213           JUNCTION     0.44     0.52     5.22     0  03:05        0.52
  WS02003059           JUNCTION     0.40     0.53     5.18     0  03:04        0.53
  WS02003060           JUNCTION     0.45     0.62     5.17     0  03:03        0.62
  WS02003066           JUNCTION     0.17     0.31     5.61     0  03:02        0.30
  WS02003067           JUNCTION     0.29     0.52     5.84     0  03:02        0.52
  WS02003071           JUNCTION     0.50     0.67     5.07     0  03:04        0.67
  WS02003072           JUNCTION     0.42     0.60     4.97     0  03:13        0.59
  WS02003073           JUNCTION     0.49     0.77     5.01     0  03:14        0.72
  WS02003076           JUNCTION     0.44     0.67     4.90     0  03:17        0.66
  WS02003077           JUNCTION     0.06     0.11     5.12     0  03:05        0.11
  WS02003078           JUNCTION     0.04     0.07     6.97     0  03:05        0.07
  WS02003079           JUNCTION     0.12     0.22     7.13     0  03:05        0.22
  WS02003093           JUNCTION     0.02     0.07     7.41     0  03:02        0.07
  WS02003094           JUNCTION     0.11     0.19     7.41     0  03:01        0.19
  WS02003098           JUNCTION     0.07     0.12     7.29     0  03:02        0.12
  WS02003099           JUNCTION     0.13     0.24     7.28     0  03:03        0.24
  WS02003102           JUNCTION     0.12     0.23     7.26     0  03:03        0.23
  WS02003103           JUNCTION     0.14     0.25     7.22     0  03:04        0.25
  WS02003104           JUNCTION     0.13     0.24     7.20     0  03:04        0.24
  WS02003106           JUNCTION     0.13     0.24     7.17     0  03:04        0.24
  WS02004050           JUNCTION     0.31     0.42     4.64     0  03:06        0.42
  WS02004053           JUNCTION     0.00     0.00     0.00     0  00:00        0.00
  WS02004136           JUNCTION     0.17     0.18     6.91     0  01:22        0.18
  WS02004139           JUNCTION     0.35     0.38     5.34     0  03:08        0.38
  WS02004401           JUNCTION     0.27     0.48     6.48     0  03:01        0.48
  WS02004402           JUNCTION     0.28     0.50     6.46     0  03:01        0.50
  WS02004403           JUNCTION     0.27     0.50     6.43     0  03:01        0.49
  WS02004404           JUNCTION     0.35     0.58     6.43     0  03:01        0.58
  WS02004405           JUNCTION     0.35     0.58     6.42     0  03:02        0.58
  WS02004406           JUNCTION     0.33     0.56     6.39     0  03:02        0.56
  WS02004407           JUNCTION     0.31     0.53     6.33     0  03:02        0.53
  WS02004409           JUNCTION     0.31     0.52     6.29     0  03:02        0.52
  WS02004410           JUNCTION     0.30     0.50     6.22     0  03:02        0.50
  WS02004411           JUNCTION     0.28     0.47     6.15     0  03:03        0.47
  WS02004412           JUNCTION     0.24     0.41     6.05     0  03:03        0.41
  WS02004413           JUNCTION     0.25     0.44     5.91     0  03:02        0.44
  WS02004997           JUNCTION     5.21     6.90     8.51     0  02:05        6.73
  WS02005192           JUNCTION     0.13     0.28     8.15     0  02:43        0.28
  WS02005193           JUNCTION     0.15     0.30     8.12     0  03:02        0.30
  WS02005196           JUNCTION     0.14     0.27     8.12     0  03:03        0.27
  WS02006109           JUNCTION     0.31     0.53     7.15     0  03:09        0.53
  WS02006110           JUNCTION     0.30     0.48     7.08     0  03:08        0.48
  WS02006111           JUNCTION     0.15     0.27     6.85     0  03:09        0.27
  WS02006112           JUNCTION     0.30     0.50     6.62     0  03:00        0.50
  WS02006113           JUNCTION     0.25     0.41     7.00     0  03:09        0.41
  WS02006115           JUNCTION     0.26     0.46     6.56     0  03:00        0.45
  WS02006116           JUNCTION     0.28     0.48     6.52     0  03:01        0.48
  WS02006183           JUNCTION     0.00     0.00     0.00     0  00:00        0.00
  WS02006228           JUNCTION     0.31     0.54     7.19     0  03:09        0.54
  WS02006229           JUNCTION     0.28     0.51     7.20     0  03:10        0.51
  WS02006230           JUNCTION     0.26     0.48     7.23     0  03:10        0.48
  WS02006231           JUNCTION     0.19     0.37     7.27     0  03:08        0.37
  WS02006232           JUNCTION     0.19     0.35     7.38     0  03:08        0.35
  WS02006234           JUNCTION     0.19     0.34     7.50     0  03:07        0.34
  WS02006235           JUNCTION     0.23     0.39     7.56     0  03:07        0.39
  WS02006238           JUNCTION     0.23     0.40     7.58     0  03:07        0.40
  WS02006239           JUNCTION     0.24     0.44     7.65     0  03:07        0.44
  WS02006242           JUNCTION     0.26     0.46     7.76     0  03:06        0.46
  WS02006240           JUNCTION     0.21     0.40     7.69     0  03:06        0.40
  WS02006243           JUNCTION     0.20     0.39     7.81     0  03:05        0.38
  WS02006245           JUNCTION     0.20     0.39     7.88     0  03:05        0.39
  WS02006247           JUNCTION     0.22     0.42     7.93     0  03:05        0.42
  WS02006248           JUNCTION     0.18     0.37     7.96     0  03:04        0.37
  WS02006249           JUNCTION     0.21     0.40     8.00     0  03:04        0.40
  WS02006251           JUNCTION     0.20     0.41     8.08     0  03:04        0.40
  WS02006253           JUNCTION     0.14     0.32     8.12     0  03:03        0.30
  WS02618401           JUNCTION     0.00     0.00     0.00     0  00:00        0.00
  WS8802               JUNCTION     0.00     0.00     4.38     0  00:00        0.00
  WSA1649              JUNCTION     0.00     0.00     0.00     0  00:00        0.00
  WSF200               JUNCTION     0.16     0.30     5.40     0  03:03        0.30
  XR-Inflow            JUNCTION     5.03     6.55     8.36     0  02:05        6.55
  WS02004114           JUNCTION     5.21     7.01     8.61     0  02:05        6.73
  outfall-2            OUTFALL      0.00     0.00     7.00     0  00:00        0.00
  outfall-5            OUTFALL      0.00     0.00     7.67     0  00:00        0.00
  outfall-14           OUTFALL      0.00     0.00     7.66     0  00:00        0.00
  outfall-16           OUTFALL      0.00     0.00     8.39     0  00:00        0.00
  12                   OUTFALL      0.30     0.42     0.42     0  03:06        0.41
  XR-storage           STORAGE      6.30     8.12     8.62     0  02:05        7.83
  CC-storage           STORAGE      3.55     5.03     8.21     0  03:01        5.01
  JK-storage           STORAGE      3.89     4.80     7.80     0  01:53        4.80
  
  
  *******************
  Node Inflow Summary
  *******************
  
  -------------------------------------------------------------------------------------------------
                                  Maximum  Maximum                  Lateral       Total        Flow
                                  Lateral    Total  Time of Max      Inflow      Inflow     Balance
                                   Inflow   Inflow   Occurrence      Volume      Volume       Error
  Node                 Type           MLD      MLD  days hr:min    10^6 ltr    10^6 ltr     Percent
  -------------------------------------------------------------------------------------------------
  WS01000070           JUNCTION      0.00     0.00     0  00:00           0           0       0.000 ltr
  WS01000323           JUNCTION      0.00     0.00     0  00:00           0           0       0.000 ltr
  WS01000533           JUNCTION      0.00     0.00     0  00:00           0           0       0.000 ltr
  WS01005172           JUNCTION      0.00     0.00     0  00:00           0           0       0.000 ltr
  WS01005181           JUNCTION      0.00     0.00     0  00:00           0           0       0.000 ltr
  WS01009841           JUNCTION      0.00     0.00     0  00:00           0           0       0.000 ltr
  WS02000078           JUNCTION      0.00     0.00     0  00:00           0           0       0.000 ltr
  WS02000112           JUNCTION      0.00     0.00     0  00:00           0           0       0.000 ltr
  WS02000136           JUNCTION      0.00     0.00     0  00:00           0           0       0.000 ltr
  WS02001211           JUNCTION      0.25    33.84     0  01:44      0.0407        4.82       0.522
  WS02001212           JUNCTION      0.21    34.11     0  03:09      0.0346        4.83       0.287
  WS02001213           JUNCTION      0.30    34.62     0  03:08      0.0489        4.87       0.389
  WS02003059           JUNCTION      0.23    35.30     0  03:10      0.0378        4.89       0.463
  WS02003060           JUNCTION      0.16    93.94     0  03:03      0.0252        8.04       0.399
  WS02003066           JUNCTION      0.08    70.13     0  03:01      0.0122        3.13       0.175
  WS02003067           JUNCTION      0.26    56.19     0  03:03      0.0395        3.12       0.211
  WS02003071           JUNCTION      0.35    89.75     0  03:05      0.0538        8.06       0.425
  WS02003072           JUNCTION      0.24    89.98     0  03:05      0.0382        8.06       0.263
  WS02003073           JUNCTION      0.07    98.70     0  03:04     0.00978        8.46       0.245
  WS02003076           JUNCTION      0.72   108.84     0  03:09        0.12        8.56       0.172
  WS02003077           JUNCTION      0.04     8.51     0  03:05      0.0059       0.406       0.157
  WS02003078           JUNCTION      0.03     9.76     0  03:05     0.00419       0.399      -0.158
  WS02003079           JUNCTION      0.04     8.45     0  03:04     0.00561       0.397       0.347
  WS02003093           JUNCTION      0.02     0.06     0  03:01     0.00306     0.00327       0.396
  WS02003094           JUNCTION      4.94     4.94     0  03:01       0.209       0.212       1.027
  WS02003098           JUNCTION      0.02     4.82     0  03:02     0.00293       0.212       0.610
  WS02003099           JUNCTION      0.07     4.83     0  03:02      0.0109       0.222       1.286
  WS02003102           JUNCTION      4.22     8.50     0  03:01       0.166       0.385       0.602
  WS02003103           JUNCTION      0.02     8.40     0  03:03     0.00239       0.385       0.431
  WS02003104           JUNCTION      0.02     8.40     0  03:03     0.00302       0.387       0.359
  WS02003106           JUNCTION      0.05     8.43     0  03:04     0.00728       0.393       0.448
  WS02004050           JUNCTION      0.72   116.86     0  03:08       0.119        8.66       0.583
  WS02004053           JUNCTION      0.00     0.00     0  00:00           0           0       0.000 ltr
  WS02004136           JUNCTION      0.44    32.92     0  01:21      0.0703        4.74       0.065
  WS02004139           JUNCTION      0.38    33.61     0  01:22      0.0619         4.8       0.364
  WS02004401           JUNCTION      0.05    39.40     0  03:01     0.00897        2.21       0.228
  WS02004402           JUNCTION      0.22    39.45     0  03:01      0.0335        2.24       0.207
  WS02004403           JUNCTION      0.23    39.48     0  03:01      0.0349        2.27       0.166
  WS02004404           JUNCTION      0.24    39.56     0  03:01      0.0365         2.3       0.173
  WS02004405           JUNCTION      2.91    42.22     0  03:01       0.118        2.41       0.254
  WS02004406           JUNCTION      5.24    47.20     0  03:02        0.25        2.66       0.362
  WS02004407           JUNCTION      0.11    47.16     0  03:02      0.0171        2.67       0.322
  WS02004409           JUNCTION      3.67    50.59     0  03:02       0.182        2.84       0.268
  WS02004410           JUNCTION      0.15    50.70     0  03:02      0.0226        2.85       0.275
  WS02004411           JUNCTION      0.25    50.95     0  03:03      0.0379        2.88       0.236
  WS02004412           JUNCTION      4.86    55.39     0  03:03         0.2        3.08       0.177
  WS02004413           JUNCTION      0.11    55.71     0  03:03      0.0172        3.09       0.168
  WS02004997           JUNCTION      0.42    38.92     0  02:05      0.0693        4.75       0.812
  WS02005192           JUNCTION      4.91     4.91     0  03:01       0.205       0.208       0.540
  WS02005193           JUNCTION      0.09     6.75     0  02:42      0.0146       0.264       1.307
  WS02005196           JUNCTION      0.12     5.79     0  03:03       0.019       0.235       1.242
  WS02006109           JUNCTION      0.08    34.56     0  03:09      0.0135        1.89       0.349
  WS02006110           JUNCTION      0.08    34.81     0  03:10      0.0132         1.9       0.334
  WS02006111           JUNCTION      0.24    39.17     0  02:59      0.0366        2.14       0.116
  WS02006112           JUNCTION      0.18    39.33     0  03:00      0.0273        2.17       0.250
  WS02006113           JUNCTION      5.04    38.92     0  02:59       0.217        2.11       0.220
  WS02006115           JUNCTION      0.08    39.40     0  03:10      0.0134        2.17       0.253
  WS02006116           JUNCTION      0.24    39.45     0  03:00       0.036         2.2       0.245
  WS02006183           JUNCTION      0.00     0.00     0  00:00           0           0       0.000 ltr
  WS02006228           JUNCTION      6.38    34.75     0  03:09       0.342        1.88       0.262
  WS02006229           JUNCTION      0.13    29.04     0  03:07        0.02        1.55       0.253
  WS02006230           JUNCTION      0.07    29.19     0  03:08      0.0116        1.53       0.307
  WS02006231           JUNCTION      0.13    29.06     0  03:08      0.0205        1.52       0.300
  WS02006232           JUNCTION      3.54    28.91     0  03:07       0.146        1.51       0.353
  WS02006234           JUNCTION      0.14    26.42     0  03:07      0.0216        1.37       0.368
  WS02006235           JUNCTION      0.14    26.34     0  03:07      0.0223        1.35       0.218
  WS02006238           JUNCTION      0.15    26.22     0  03:07      0.0235        1.33       0.342
  WS02006239           JUNCTION      0.11    25.97     0  03:06      0.0174        1.32       0.606
  WS02006242           JUNCTION      0.08    26.30     0  03:06      0.0129        1.31       0.824
  WS02006240           JUNCTION      0.06    26.01     0  03:06     0.00992        1.31       0.618
  WS02006243           JUNCTION      0.17    26.55     0  03:05      0.0269         1.3       0.599
  WS02006245           JUNCTION      0.07    26.85     0  03:05      0.0113        1.28       0.488
  WS02006247           JUNCTION      2.96    26.34     0  03:04       0.149        1.28       0.475
  WS02006248           JUNCTION      0.12    23.83     0  03:04      0.0192        1.13       0.392
  WS02006249           JUNCTION      0.19    24.22     0  03:04      0.0286        1.12       0.698
  WS02006251           JUNCTION      1.56    24.65     0  03:03      0.0671         1.1       0.675
  WS02006253           JUNCTION      0.11    23.23     0  03:03      0.0173        1.05       0.277
  WS02618401           JUNCTION      0.00     0.00     0  00:00           0           0       0.000 ltr
  WS8802               JUNCTION      0.00     0.00     0  00:00           0           0       0.000 ltr
  WSA1649              JUNCTION      0.00     0.00     0  00:00           0           0       0.000 ltr
  WSF200               JUNCTION      0.14    64.81     0  03:02      0.0216        3.15      -0.009
  XR-Inflow            JUNCTION    115.18   115.18     0  03:01        8.45        8.45       0.267
  WS02004114           JUNCTION      0.57    39.37     0  02:05      0.0916         4.8       0.462
  outfall-2            OUTFALL       0.00     0.00     0  00:00           0           0       0.000 ltr
  outfall-5            OUTFALL       0.00     0.00     0  00:00           0           0       0.000 ltr
  outfall-14           OUTFALL       0.00     0.00     0  00:00           0           0       0.000 ltr
  outfall-16           OUTFALL       0.00     0.00     0  00:00           0           0       0.000 ltr
  12                   OUTFALL       0.00    99.86     0  03:06           0        8.61       0.000
  XR-storage           STORAGE       0.00    39.39     0  02:05           0        4.78       0.982
  CC-storage           STORAGE      15.45    15.45     0  03:01        0.87        0.87       0.001
  JK-storage           STORAGE      15.52    15.52     0  03:01       0.788       0.788       0.002
  
  
  **********************
  Node Surcharge Summary
  **********************
  
  Surcharging occurs when water rises above the top of the highest conduit.
  ---------------------------------------------------------------------
                                               Max. Height   Min. Depth
                                   Hours       Above Crown    Below Rim
  Node                 Type      Surcharged         Meters       Meters
  ---------------------------------------------------------------------
  WS01000070           JUNCTION        4.00          0.000        0.000
  WS01000323           JUNCTION        4.00          0.000        0.000
  WS01000533           JUNCTION        4.00          0.000        2.147
  WS01005172           JUNCTION        4.00          0.000        0.000
  WS01005181           JUNCTION        4.00          0.000        0.000
  WS01009841           JUNCTION        4.00          0.000        0.000
  WS02000078           JUNCTION        4.00          0.000        0.000
  WS02000112           JUNCTION        4.00          0.000        0.000
  WS02000136           JUNCTION        4.00          0.000        0.000
  WS02004053           JUNCTION        4.00          0.000        0.000
  WS02004997           JUNCTION        3.88          6.000        0.000
  WS02006183           JUNCTION        4.00          0.000        0.000
  WS02618401           JUNCTION        4.00          0.000        0.000
  WS8802               JUNCTION        4.00          0.000        4.942
  WSA1649              JUNCTION        4.00          0.000        0.000
  XR-Inflow            JUNCTION        3.87          5.650        0.000
  WS02004114           JUNCTION        3.88          6.110        0.405
  XR-storage           STORAGE         3.96          7.223        0.000
  
  
  *********************
  Node Flooding Summary
  *********************
  
  Flooding refers to all water that overflows a node, whether it ponds or not.
  --------------------------------------------------------------------------
                                                             Total   Maximum
                                 Maximum   Time of Max       Flood    Ponded
                        Hours       Rate    Occurrence      Volume     Depth
  Node                 Flooded       MLD   days hr:min    10^6 ltr    Meters
  --------------------------------------------------------------------------
  WS02004997              0.01      1.39      0  02:05       0.000     0.000
  XR-Inflow               1.90     83.62      0  03:01       3.750     0.000
  JK-storage              2.11     15.51      0  03:01       0.652     0.000
  
  
  **********************
  Storage Volume Summary
  **********************
  
  --------------------------------------------------------------------------------------------------
                         Average     Avg  Evap Exfil       Maximum     Max    Time of Max    Maximum
                          Volume    Pcnt  Pcnt  Pcnt        Volume    Pcnt     Occurrence    Outflow
  Storage Unit           1000 m3    Full  Loss  Loss       1000 m3    Full    days hr:min        MLD
  --------------------------------------------------------------------------------------------------
  XR-storage               0.051      81     0     0         0.063     100       0  02:05      32.48
  CC-storage               0.100      63     0     0         0.142      89       0  03:01      17.28
  JK-storage               0.110      81     0     0         0.136     100       0  01:53       0.00
  
  
  ***********************
  Outfall Loading Summary
  ***********************
  
  ---------------------------------------------------------------------------------------------------------------------------------
                         Flow       Avg       Max       Total         Total         Total         Total         Total         Total
                         Freq      Flow      Flow      Volume           COD         NH3-N            TN            TP            SS
  Outfall Node           Pcnt       MLD       MLD    10^6 ltr            kg            kg            kg            kg            kg
  ---------------------------------------------------------------------------------------------------------------------------------
  outfall-2              0.00      0.00      0.00       0.000         0.000         0.000         0.000         0.000         0.000
  outfall-5              0.00      0.00      0.00       0.000         0.000         0.000         0.000         0.000         0.000
  outfall-14             0.00      0.00      0.00       0.000         0.000         0.000         0.000         0.000         0.000
  outfall-16             0.00      0.00      0.00       0.000         0.000         0.000         0.000         0.000         0.000
  12                    99.98     58.56     99.86       8.609      1268.480         0.000         0.000         0.000         0.000
  ---------------------------------------------------------------------------------------------------------------------------------
  System                20.00     58.56     99.86       8.609      1268.480         0.000         0.000         0.000         0.000
  
  
  ********************
  Link Flow Summary
  ********************
  
  -----------------------------------------------------------------------------
                                 Maximum  Time of Max   Maximum    Max/    Max/
                                  |Flow|   Occurrence   |Veloc|    Full    Full
  Link                 Type          MLD  days hr:min     m/sec    Flow   Depth
  -----------------------------------------------------------------------------
  WSL49                CONDUIT    108.13     0  03:09      2.23    1.34    0.57
  WSL1465              CONDUIT     36.46     0  03:30      1.65    0.33    0.57
  WSL1472              CONDUIT     89.77     0  03:05      1.79    1.02    0.52
  WSL1475              CONDUIT    116.14     0  03:08      2.71    1.24    0.37
  WSL1476              CONDUIT      8.49     0  03:05      0.45    0.04    0.54
  WSL1477              CONDUIT      9.73     0  03:05      2.15    0.38    0.24
  WSL1490              CONDUIT     33.90     0  03:09      1.38    0.55    0.43
  WSL1491              CONDUIT     34.34     0  03:08      1.44    0.20    0.47
  WSL1492              CONDUIT     35.08     0  03:10      1.38    0.54    0.52
  WSL1507              CONDUIT      0.13     0  03:03      0.13    0.00    0.16
  WSL1508              CONDUIT      4.81     0  03:02      0.81    0.14    0.20
  WSL1512              CONDUIT      4.77     0  03:02      0.56    0.03    0.18
  WSL1513              CONDUIT      4.87     0  03:04      0.46    0.29    0.29
  WSL1515              CONDUIT     70.06     0  03:01      2.48    0.68    0.33
  WSL1516              CONDUIT      8.48     0  03:05      3.63    0.03    0.15
  WSL1518              CONDUIT      8.39     0  03:03      0.77    0.16    0.30
  WSL1519              CONDUIT      8.39     0  03:04      0.76    0.21    0.30
  WSL1521              CONDUIT      8.42     0  03:04      0.82    0.24    0.29
  WSL1543              CONDUIT      8.38     0  03:03      0.74    0.26    0.31
  WSL1961              CONDUIT     33.23     0  01:22      3.05    0.07    0.28
  WSL1964              CONDUIT     33.59     0  01:44      1.38    0.18    0.35
  WSL2010              CONDUIT     39.29     0  03:01      1.26    0.50    0.50
  WSL2011              CONDUIT     39.37     0  03:01      1.14    0.25    0.54
  WSL2012              CONDUIT     39.50     0  03:01      1.02    0.60    0.58
  WSL2013              CONDUIT     42.16     0  03:02      1.08    1.05    0.57
  WSL2014              CONDUIT     47.06     0  03:02      1.24    0.75    0.55
  WSL2015              CONDUIT     47.17     0  03:02      1.31    0.63    0.53
  WSL2016              CONDUIT     50.58     0  03:02      1.46    0.58    0.51
  WSL2017              CONDUIT     50.74     0  03:03      1.58    0.62    0.48
  WSL2018              CONDUIT     55.61     0  03:03      2.05    0.33    0.42
  WSL2019              CONDUIT     55.98     0  03:03      1.87    0.33    0.48
  WSL2028              CONDUIT     39.27     0  03:01      1.25    0.42    0.49
  WSL2029              CONDUIT     51.28     0  03:03      1.81    0.65    0.44
  WSL2038              CONDUIT      5.69     0  03:03      0.73    0.28    0.45
  WSL2039              CONDUIT      9.52     0  02:55      1.39    0.49    0.50
  WSL2041              CONDUIT      6.30     0  02:56      0.90    0.31    0.47
  WSL2294              CONDUIT     34.74     0  03:10      1.21    1.17    0.63
  WSL2295              CONDUIT     35.26     0  03:10      1.43    1.59    0.56
  WSL2296              CONDUIT     39.19     0  03:00      1.93    0.22    0.48
  WSL2297              CONDUIT     39.32     0  03:10      1.28    0.75    0.48
  WSL2298              CONDUIT     38.96     0  02:59      2.22    1.79    0.43
  WSL2301              CONDUIT     39.26     0  03:00      1.30    0.36    0.47
  WSL2302              CONDUIT     39.34     0  03:01      1.26    0.48    0.48
  WSL2441              CONDUIT     34.49     0  03:09      1.17    0.88    0.67
  WSL2442              CONDUIT     28.93     0  03:07      1.27    0.74    0.71
  WSL2443              CONDUIT     29.12     0  03:08      1.43    0.45    0.61
  WSL2444              CONDUIT     28.94     0  03:08      1.70    0.46    0.51
  WSL2446              CONDUIT     26.65     0  03:07      1.65    0.46    0.49
  WSL2447              CONDUIT     26.30     0  03:07      1.51    1.35    0.52
  WSL2448              CONDUIT     26.22     0  03:07      1.35    0.74    0.57
  WSL2449              CONDUIT     26.10     0  03:07      1.26    0.91    0.60
  WSL2450              CONDUIT     25.87     0  03:06      1.27    0.54    0.60
  WSL2451              CONDUIT     25.96     0  03:06      1.24    1.69    0.61
  WSL2452              CONDUIT     26.23     0  03:06      1.31    0.50    0.60
  WSL2454              CONDUIT     26.41     0  03:05      1.47    0.62    0.55
  WSL2478              CONDUIT     26.79     0  03:05      1.35    0.95    0.58
  WSL2479              CONDUIT     23.80     0  03:04      1.24    0.45    0.57
  WSL2480              CONDUIT     23.73     0  03:04      1.27    1.10    0.55
  WSL2482              CONDUIT     24.07     0  03:04      1.24    0.63    0.57
  WSL2484              CONDUIT     23.36     0  03:03      1.85    0.33    0.50
  WSL2493              CONDUIT     28.60     0  02:58      1.09    0.48    0.65
  WSL2867              CONDUIT     64.70     0  03:02      3.49    0.13    0.25
  WSL2868              CONDUIT     61.31     0  03:03      1.83    0.12    0.38
  WSL348               CONDUIT     38.51     0  02:05      1.86    0.35    1.00
  WSL175               CONDUIT     38.84     0  02:05      2.30    1.31    1.00
  WSL1467              CONDUIT     89.45     0  03:05      1.69    0.47    0.53
  WSL1473              CONDUIT     90.17     0  03:04      1.90    0.37    0.55
  XRpipe               CONDUIT     39.39     0  02:05      2.53    0.10    1.00
  8                    CONDUIT      0.00     0  00:00      0.00    0.00    0.00
  19                   CONDUIT      0.00     0  00:00      0.00    0.00    0.00
  17                   CONDUIT      0.00     0  00:00      0.00    0.00    0.00
  4                    CONDUIT      0.00     0  00:00      0.00    0.00    0.00
  2                    CONDUIT     99.86     0  03:06      3.74    0.36    0.42
  XR-Pump-1            PUMP         8.12     0  00:08              1.00
  XR-Pump-3            PUMP         8.12     0  00:09              1.00
  XR-Pump-2            PUMP         8.12     0  00:09              1.00
  XR-Pump-4            PUMP         8.12     0  01:21              1.00
  CC-Pump-1            PUMP        17.28     0  01:36              1.00
  CC-Pump-2            PUMP         0.00     0  00:00              0.00
  JK-Pump-1            PUMP         0.00     0  00:00              0.00
  JK-Pump-2            PUMP         0.00     0  00:00              0.00
  
  
  ***************************
  Flow Classification Summary
  ***************************
  
  -------------------------------------------------------------------------------------
                      Adjusted    ---------- Fraction of Time in Flow Class ---------- 
                       /Actual         Up    Down  Sub   Sup   Up    Down  Norm  Inlet 
  Conduit               Length    Dry  Dry   Dry   Crit  Crit  Crit  Crit  Ltd   Ctrl  
  -------------------------------------------------------------------------------------
  WSL49                   1.00   0.00  0.00  0.00  0.99  0.01  0.00  0.00  0.00  0.00
  WSL1465                 1.00   0.00  0.00  0.00  1.00  0.00  0.00  0.00  0.11  0.00
  WSL1472                 1.00   0.00  0.00  0.00  1.00  0.00  0.00  0.00  0.00  0.00
  WSL1475                 1.00   0.00  0.00  0.00  0.13  0.87  0.00  0.00  0.00  0.00
  WSL1476                 1.00   0.00  0.00  0.00  1.00  0.00  0.00  0.00  1.00  0.00
  WSL1477                 1.00   0.00  0.00  0.00  0.00  1.00  0.00  0.00  0.32  0.00
  WSL1490                 1.00   0.00  0.00  0.00  1.00  0.00  0.00  0.00  0.00  0.00
  WSL1491                 1.00   0.00  0.00  0.00  1.00  0.00  0.00  0.00  0.04  0.00
  WSL1492                 1.00   0.00  0.00  0.00  1.00  0.00  0.00  0.00  0.00  0.00
  WSL1507                 1.00   0.00  0.00  0.00  1.00  0.00  0.00  0.00  0.76  0.00
  WSL1508                 1.00   0.00  0.00  0.00  1.00  0.00  0.00  0.00  0.00  0.00
  WSL1512                 1.00   0.00  0.00  0.00  1.00  0.00  0.00  0.00  1.00  0.00
  WSL1513                 1.00   0.00  0.00  0.00  1.00  0.00  0.00  0.00  0.00  0.00
  WSL1515                 1.00   0.00  0.00  0.00  0.12  0.88  0.00  0.00  0.04  0.00
  WSL1516                 1.00   0.00  0.00  0.00  0.00  1.00  0.00  0.00  1.00  0.00
  WSL1518                 1.00   0.00  0.00  0.00  1.00  0.00  0.00  0.00  0.67  0.00
  WSL1519                 1.00   0.00  0.00  0.00  1.00  0.00  0.00  0.00  0.37  0.00
  WSL1521                 1.00   0.00  0.00  0.00  1.00  0.00  0.00  0.00  0.02  0.00
  WSL1543                 1.00   0.00  0.00  0.00  1.00  0.00  0.00  0.00  0.02  0.00
  WSL1961                 1.00   0.00  0.00  0.00  0.01  0.99  0.00  0.00  0.97  0.00
  WSL1964                 1.00   0.00  0.00  0.00  1.00  0.00  0.00  0.00  0.05  0.00
  WSL2010                 1.00   0.00  0.00  0.00  1.00  0.00  0.00  0.00  0.01  0.00
  WSL2011                 1.00   0.00  0.00  0.00  1.00  0.00  0.00  0.00  0.27  0.00
  WSL2012                 1.00   0.00  0.00  0.00  1.00  0.00  0.00  0.00  0.00  0.00
  WSL2013                 1.00   0.00  0.00  0.00  1.00  0.00  0.00  0.00  0.00  0.00
  WSL2014                 1.00   0.00  0.00  0.00  1.00  0.00  0.00  0.00  0.00  0.00
  WSL2015                 1.00   0.00  0.00  0.00  1.00  0.00  0.00  0.00  0.02  0.00
  WSL2016                 1.00   0.00  0.00  0.00  1.00  0.00  0.00  0.00  0.01  0.00
  WSL2017                 1.00   0.00  0.00  0.00  1.00  0.00  0.00  0.00  0.04  0.00
  WSL2018                 1.00   0.00  0.00  0.00  0.01  0.99  0.00  0.00  0.15  0.00
  WSL2019                 1.00   0.00  0.00  0.00  0.43  0.57  0.00  0.00  0.10  0.00
  WSL2028                 1.00   0.00  0.00  0.00  1.00  0.00  0.00  0.00  0.06  0.00
  WSL2029                 1.00   0.00  0.00  0.00  0.59  0.41  0.00  0.00  0.00  0.00
  WSL2038                 1.00   0.00  0.00  0.00  1.00  0.00  0.00  0.00  0.02  0.00
  WSL2039                 1.00   0.00  0.00  0.00  0.88  0.12  0.00  0.00  0.01  0.00
  WSL2041                 1.00   0.00  0.00  0.00  1.00  0.00  0.00  0.00  0.34  0.00
  WSL2294                 1.00   0.00  0.00  0.00  1.00  0.00  0.00  0.00  0.00  0.00
  WSL2295                 1.00   0.00  0.00  0.00  1.00  0.00  0.00  0.00  0.00  0.00
  WSL2296                 1.00   0.00  0.00  0.00  0.25  0.75  0.00  0.00  0.78  0.00
  WSL2297                 1.00   0.00  0.00  0.00  1.00  0.00  0.00  0.00  0.00  0.00
  WSL2298                 1.00   0.00  0.00  0.00  0.05  0.95  0.00  0.00  0.00  0.00
  WSL2301                 1.00   0.00  0.00  0.00  1.00  0.00  0.00  0.00  0.08  0.00
  WSL2302                 1.00   0.00  0.00  0.00  1.00  0.00  0.00  0.00  0.06  0.00
  WSL2441                 1.00   0.00  0.00  0.00  1.00  0.00  0.00  0.00  0.01  0.00
  WSL2442                 1.00   0.00  0.00  0.00  1.00  0.00  0.00  0.00  0.23  0.00
  WSL2443                 1.00   0.00  0.00  0.00  1.00  0.00  0.00  0.00  0.67  0.00
  WSL2444                 1.00   0.00  0.00  0.00  0.02  0.98  0.00  0.00  0.44  0.00
  WSL2446                 1.00   0.00  0.00  0.00  0.13  0.87  0.00  0.00  0.22  0.00
  WSL2447                 1.00   0.00  0.00  0.00  1.00  0.00  0.00  0.00  0.00  0.00
  WSL2448                 1.00   0.00  0.00  0.00  1.00  0.00  0.00  0.00  0.02  0.00
  WSL2449                 1.00   0.00  0.00  0.00  1.00  0.00  0.00  0.00  0.02  0.00
  WSL2450                 1.00   0.00  0.00  0.00  1.00  0.00  0.00  0.00  0.54  0.00
  WSL2451                 1.00   0.00  0.00  0.00  1.00  0.00  0.00  0.00  0.00  0.00
  WSL2452                 1.00   0.00  0.00  0.00  1.00  0.00  0.00  0.00  0.67  0.00
  WSL2454                 1.00   0.00  0.00  0.00  0.99  0.01  0.00  0.00  0.07  0.00
  WSL2478                 1.00   0.00  0.00  0.00  1.00  0.00  0.00  0.00  0.00  0.00
  WSL2479                 1.00   0.00  0.00  0.00  1.00  0.00  0.00  0.00  0.64  0.00
  WSL2480                 1.00   0.00  0.00  0.00  1.00  0.00  0.00  0.00  0.00  0.00
  WSL2482                 1.00   0.00  0.00  0.00  1.00  0.00  0.00  0.00  0.67  0.00
  WSL2484                 1.00   0.00  0.00  0.00  0.98  0.02  0.00  0.00  0.71  0.00
  WSL2493                 1.00   0.00  0.00  0.00  1.00  0.00  0.00  0.00  0.05  0.00
  WSL2867                 1.00   0.00  0.00  0.00  0.00  1.00  0.00  0.00  0.18  0.00
  WSL2868                 1.00   0.00  0.00  0.00  0.98  0.02  0.00  0.00  0.94  0.00
  WSL348                  1.00   0.00  0.00  0.00  1.00  0.00  0.00  0.00  0.01  0.00
  WSL175                  1.00   0.00  0.00  0.00  1.00  0.00  0.00  0.00  0.00  0.00
  WSL1467                 1.00   0.00  0.00  0.00  1.00  0.00  0.00  0.00  0.05  0.00
  WSL1473                 1.00   0.00  0.00  0.00  1.00  0.00  0.00  0.00  0.05  0.00
  XRpipe                  1.00   0.00  0.00  0.00  1.00  0.00  0.00  0.00  0.00  0.00
  8                       1.00   1.00  0.00  0.00  0.00  0.00  0.00  0.00  0.00  0.00
  19                      1.00   1.00  0.00  0.00  0.00  0.00  0.00  0.00  0.00  0.00
  17                      1.00   1.00  0.00  0.00  0.00  0.00  0.00  0.00  0.00  0.00
  4                       1.00   1.00  0.00  0.00  0.00  0.00  0.00  0.00  0.00  0.00
  2                       1.00   0.00  0.00  0.00  0.00  1.00  0.00  0.00  0.21  0.00
  
  
  *************************
  Conduit Surcharge Summary
  *************************
  
  ----------------------------------------------------------------------------
                                                           Hours        Hours 
                         --------- Hours Full --------   Above Full   Capacity
  Conduit                Both Ends  Upstream  Dnstream   Normal Flow   Limited
  ----------------------------------------------------------------------------
  WSL49                       0.01      0.01      0.01      0.50         0.01
  WSL1472                     0.01      0.01      0.01      0.06         0.01
  WSL1475                     0.01      0.01      0.01      0.23         0.01
  WSL2013                     0.01      0.01      0.01      0.06         0.01
  WSL2294                     0.01      0.01      0.01      0.39         0.01
  WSL2295                     0.01      0.01      0.01      0.78         0.01
  WSL2298                     0.01      0.01      0.01      0.95         0.01
  WSL2447                     0.01      0.01      0.01      0.72         0.01
  WSL2451                     0.01      0.01      0.01      0.94         0.01
  WSL2480                     0.01      0.01      0.01      0.28         0.01
  WSL348                      3.87      3.87      3.88      0.01         0.01
  WSL175                      3.88      3.88      3.88      2.35         2.46
  XRpipe                      3.88      3.88      3.96      0.01         0.01
  
  
  ***************
  Pumping Summary
  ***************
  
  ---------------------------------------------------------------------------------------------------------
                                                  Min       Avg       Max     Total     Power    % Time Off
                        Percent   Number of      Flow      Flow      Flow    Volume     Usage    Pump Curve
  Pump                 Utilized   Start-Ups       MLD       MLD       MLD  10^6 ltr     Kw-hr    Low   High
  ---------------------------------------------------------------------------------------------------------
  XR-Pump-1               96.39           1      0.00      8.12      8.12     1.305      6.99    0.0   49.4
  XR-Pump-3               91.29          18      0.00      8.12      8.12     1.235      6.48    0.0   52.2
  XR-Pump-2               96.26           1      0.00      8.12      8.12     1.303      6.98    0.0   49.5
  XR-Pump-4               61.25          16      0.00      8.12      8.12     0.829      3.46    0.0   77.7
  CC-Pump-1               27.30           7      0.00     17.28     17.28     0.786      1.96    0.0    0.0
  CC-Pump-2                0.00           0      0.00      0.00      0.00     0.000      0.00    0.0    0.0
  JK-Pump-1                0.00           0      0.00      0.00      0.00     0.000      0.00    0.0    0.0
  JK-Pump-2                0.00           0      0.00      0.00      0.00     0.000      0.00    0.0    0.0
  
  
  ***************************
  Link Pollutant Load Summary
  ***************************
  
  ------------------------------------------------------------------------------------------
                                 COD         NH3-N            TN            TP            SS
  Link                            kg            kg            kg            kg            kg
  ------------------------------------------------------------------------------------------
  WSL49                     1236.475         0.000         0.000         0.000         0.000
  WSL1465                    667.144         0.000         0.000         0.000         0.000
  WSL1472                   1169.969         0.000         0.000         0.000         0.000
  WSL1475                   1254.598         0.000         0.000         0.000         0.000
  WSL1476                     64.012         0.000         0.000         0.000         0.000
  WSL1477                     62.029         0.000         0.000         0.000         0.000
  WSL1490                    653.246         0.000         0.000         0.000         0.000
  WSL1491                    657.203         0.000         0.000         0.000         0.000
  WSL1492                    663.583         0.000         0.000         0.000         0.000
  WSL1507                      0.637         0.000         0.000         0.000         0.000
  WSL1508                     37.557         0.000         0.000         0.000         0.000
  WSL1512                     37.923         0.000         0.000         0.000         0.000
  WSL1513                     39.382         0.000         0.000         0.000         0.000
  WSL1515                    493.397         0.000         0.000         0.000         0.000
  WSL1516                     62.773         0.000         0.000         0.000         0.000
  WSL1518                     59.501         0.000         0.000         0.000         0.000
  WSL1519                     60.131         0.000         0.000         0.000         0.000
  WSL1521                     61.175         0.000         0.000         0.000         0.000
  WSL1543                     59.762         0.000         0.000         0.000         0.000
  WSL1961                    640.723         0.000         0.000         0.000         0.000
  WSL1964                    649.404         0.000         0.000         0.000         0.000
  WSL2010                    311.346         0.000         0.000         0.000         0.000
  WSL2011                    316.623         0.000         0.000         0.000         0.000
  WSL2012                    322.124         0.000         0.000         0.000         0.000
  WSL2013                    336.589         0.000         0.000         0.000         0.000
  WSL2014                    409.817         0.000         0.000         0.000         0.000
  WSL2015                    411.287         0.000         0.000         0.000         0.000
  WSL2016                    454.414         0.000         0.000         0.000         0.000
  WSL2017                    456.896         0.000         0.000         0.000         0.000
  WSL2018                    485.779         0.000         0.000         0.000         0.000
  WSL2019                    487.820         0.000         0.000         0.000         0.000
  WSL2028                    306.504         0.000         0.000         0.000         0.000
  WSL2029                    462.084         0.000         0.000         0.000         0.000
  WSL2038                     25.987         0.000         0.000         0.000         0.000
  WSL2039                     35.456         0.000         0.000         0.000         0.000
  WSL2041                     30.762         0.000         0.000         0.000         0.000
  WSL2294                    285.126         0.000         0.000         0.000         0.000
  WSL2295                    286.257         0.000         0.000         0.000         0.000
  WSL2296                    295.636         0.000         0.000         0.000         0.000
  WSL2297                    299.231         0.000         0.000         0.000         0.000
  WSL2298                    289.952         0.000         0.000         0.000         0.000
  WSL2301                    300.648         0.000         0.000         0.000         0.000
  WSL2302                    305.777         0.000         0.000         0.000         0.000
  WSL2441                    284.056         0.000         0.000         0.000         0.000
  WSL2442                    195.510         0.000         0.000         0.000         0.000
  WSL2443                    194.142         0.000         0.000         0.000         0.000
  WSL2444                    191.241         0.000         0.000         0.000         0.000
  WSL2446                    189.577         0.000         0.000         0.000         0.000
  WSL2447                    186.584         0.000         0.000         0.000         0.000
  WSL2448                    183.190         0.000         0.000         0.000         0.000
  WSL2449                    179.821         0.000         0.000         0.000         0.000
  WSL2450                    177.816         0.000         0.000         0.000         0.000
  WSL2451                    177.051         0.000         0.000         0.000         0.000
  WSL2452                    176.108         0.000         0.000         0.000         0.000
  WSL2454                    172.436         0.000         0.000         0.000         0.000
  WSL2478                    171.200         0.000         0.000         0.000         0.000
  WSL2479                    154.201         0.000         0.000         0.000         0.000
  WSL2480                    151.425         0.000         0.000         0.000         0.000
  WSL2482                    147.532         0.000         0.000         0.000         0.000
  WSL2484                    133.822         0.000         0.000         0.000         0.000
  WSL2493                    198.381         0.000         0.000         0.000         0.000
  WSL2867                    494.585         0.000         0.000         0.000         0.000
  WSL2868                    498.239         0.000         0.000         0.000         0.000
  WSL348                     622.855         0.000         0.000         0.000         0.000
  WSL175                     629.893         0.000         0.000         0.000         0.000
  WSL1467                   1165.518         0.000         0.000         0.000         0.000
  WSL1473                   1173.510         0.000         0.000         0.000         0.000
  XRpipe                     643.308         0.000         0.000         0.000         0.000
  8                            0.000         0.000         0.000         0.000         0.000
  19                           0.000         0.000         0.000         0.000         0.000
  17                           0.000         0.000         0.000         0.000         0.000
  4                            0.000         0.000         0.000         0.000         0.000
  2                         1268.480         0.000         0.000         0.000         0.000
  XR-Pump-1                  179.710         0.000         0.000         0.000         0.000
  XR-Pump-3                  168.176         0.000         0.000         0.000         0.000
  XR-Pump-2                  179.396         0.000         0.000         0.000         0.000
  XR-Pump-4                  101.606         0.000         0.000         0.000         0.000
  CC-Pump-1                  100.360         0.000         0.000         0.000         0.000
  CC-Pump-2                    0.000         0.000         0.000         0.000         0.000
  JK-Pump-1                    0.000         0.000         0.000         0.000         0.000
  JK-Pump-2                    0.000         0.000         0.000         0.000         0.000
  

  Analysis begun on:  Tue Dec 17 17:12:54 2019
  Analysis ended on:  Tue Dec 17 17:12:54 2019
  Total elapsed time: < 1 sec