
  EPA STORM WATER MANAGEMENT MODEL - VERSION 5.1 (Build 5.3.0.dev0)
  --------------------------------------------------------------

  
  *********************************************************
  NOTE: The summary statistics displayed in this report are
  based on results found at every computational time step,  
  not just on results from each reporting time step.
  *********************************************************
  
  ****************
  Analysis Options
  ****************
  Flow Units ............... MLD
  Process Models:
    Rainfall/Runoff ........ YES
    RDII ................... NO
    Snowmelt ............... NO
    Groundwater ............ NO
    Flow Routing ........... YES
    Ponding Allowed ........ NO
    Water Quality .......... YES
  Infiltration Method ...... GREEN_AMPT
  Flow Routing Method ...... DYNWAVE
  Surcharge Method ......... EXTRAN
  Starting Date ............ 08/28/2015 08:00:00
  Ending Date .............. 08/28/2015 12:00:00
  Antecedent Dry Days ...... 4.0
  Report Time Step ......... 00:01:00
  Wet Time Step ............ 00:01:00
  Dry Time Step ............ 00:01:00
  Routing Time Step ........ 5.00 sec
  Variable Time Step ....... YES
  Maximum Trials ........... 8
  Number of Threads ........ 1
  Head Tolerance ........... 0.001500 m
  
  
  **************************        Volume         Depth
  Runoff Quantity Continuity     hectare-m            mm
  **************************     ---------       -------
  Total Precipitation ......         6.723        23.836
  Evaporation Loss .........         0.000         0.000
  Infiltration Loss ........         2.828        10.026
  Surface Runoff ...........         2.074         7.355
  Final Storage ............         1.824         6.466
  Continuity Error (%) .....        -0.047
  
  
  **************************           COD         NH3-N            TN            TP            SS
  Runoff Quality Continuity             kg            kg            kg            kg            kg
  **************************    ----------    ----------    ----------    ----------    ----------
  Initial Buildup ..........     13074.240         0.000         0.000         0.000         0.000
  Surface Buildup ..........       102.277         0.000         0.000         0.000         0.000
  Wet Deposition ...........         0.000         0.000         0.000         0.000         0.000
  Sweeping Removal .........         0.000         0.000         0.000         0.000         0.000
  Infiltration Loss ........       290.307         0.000         0.000         0.000         0.000
  BMP Removal ..............         0.000         0.000         0.000         0.000         0.000
  Surface Runoff ...........      3754.146         0.000         0.000         0.000         0.000
  Remaining Buildup ........      9130.158         0.000         0.000         0.000         0.000
  Continuity Error (%) .....         0.014         0.000         0.000         0.000         0.000
  
  
  **************************        Volume        Volume
  Flow Routing Continuity        hectare-m      10^6 ltr
  **************************     ---------     ---------
  Dry Weather Inflow .......         0.000         0.000
  Wet Weather Inflow .......         2.070        20.701
  Groundwater Inflow .......         0.000         0.000
  RDII Inflow ..............         0.000         0.000
  External Inflow ..........         0.561         5.611
  External Outflow .........         1.263        12.628
  Flooding Loss ............         1.257        12.568
  Evaporation Loss .........         0.000         0.000
  Exfiltration Loss ........         0.000         0.000
  Initial Stored Volume ....         0.000         0.000
  Final Stored Volume ......         0.113         1.131
  Continuity Error (%) .....        -0.058
  
  
  **************************           COD         NH3-N            TN            TP            SS
  Quality Routing Continuity            kg            kg            kg            kg            kg
  **************************    ----------    ----------    ----------    ----------    ----------
  Dry Weather Inflow .......         0.000         0.000         0.000         0.000         0.000
  Wet Weather Inflow .......      3749.556         0.000         0.000         0.000         0.000
  Groundwater Inflow .......         0.000         0.000         0.000         0.000         0.000
  RDII Inflow ..............         0.000         0.000         0.000         0.000         0.000
  External Inflow ..........       937.069         0.000         0.000         0.000         0.000
  External Outflow .........      2394.753         0.000         0.000         0.000         0.000
  Flooding Loss ............      2157.580         0.000         0.000         0.000         0.000
  Exfiltration Loss ........         0.000         0.000         0.000         0.000         0.000
  Mass Reacted .............         0.000         0.000         0.000         0.000         0.000
  Initial Stored Mass ......         0.000         0.000         0.000         0.000         0.000
  Final Stored Mass ........       140.755         0.000         0.000         0.000         0.000
  Continuity Error (%) .....        -0.138         0.000         0.000         0.000         0.000
  
  
  ***************************
  Time-Step Critical Elements
  ***************************
  Link WSL1477 (39.64%)
  Link WSL1516 (39.54%)
  Link WSL2448 (17.99%)
  
  
  ********************************
  Highest Flow Instability Indexes
  ********************************
  Link WSL1477 (127)
  Link WSL1516 (125)
  Link WSL1515 (28)
  Link WSL2867 (21)
  Link WSL1475 (21)
  
  
  *************************
  Routing Time Step Summary
  *************************
  Minimum Time Step           :     1.35 sec
  Average Time Step           :     2.41 sec
  Maximum Time Step           :     5.00 sec
  Percent in Steady State     :    -0.00
  Average Iterations per Step :     3.01
  Percent Not Converging      :     8.45
  
  
  ***************************
  Subcatchment Runoff Summary
  ***************************
  
  ------------------------------------------------------------------------------------------------------------------------------
                            Total      Total      Total      Total     Imperv       Perv      Total       Total     Peak  Runoff
                           Precip      Runon       Evap      Infil     Runoff     Runoff     Runoff      Runoff   Runoff   Coeff
  Subcatchment                 mm         mm         mm         mm         mm         mm         mm    10^6 ltr      MLD
  ------------------------------------------------------------------------------------------------------------------------------
  1                         23.84      34.83       0.00      11.78      14.10      18.56      32.67        0.40     5.23   0.557
  2                         23.84       0.00       0.00       9.18       5.78       3.40       9.17        0.31     4.22   0.385
  3                         23.84       0.00       0.00       9.27       5.73       2.91       8.64        0.44     5.98   0.363
  4                         23.84       0.00       0.00       9.12       5.80       3.69       9.49        0.25     3.45   0.398
  5                         23.84      22.54       0.00      11.27      11.21      12.73      23.95        0.41     5.27   0.516
  6                         23.84       0.00       0.00       9.27       5.73       2.95       8.68        0.43     5.82   0.364
  7                         23.84       0.00       0.00      10.25       7.92       0.00       7.92       12.68   163.22   0.332
  8                         23.84       0.00       0.00       9.23       5.75       3.12       8.87        0.38     5.12   0.372
  9                         23.84       8.78       0.00      10.28       7.81       5.63      13.44        0.51     6.46   0.412
  17                        23.84       0.00       0.00       9.20       5.77       3.29       9.06        0.33     4.53   0.380
  18                        23.84       0.00       0.00       9.24       5.75       3.10       8.84        0.38     5.22   0.371
  28                        23.84      32.05       0.00      12.07      13.27      14.11      27.38        0.72     9.40   0.490
  29                        23.84      13.47       0.00      10.46       8.90       7.75      16.65        0.40     5.26   0.446
  30                        23.84      34.69       0.00      11.79      14.25      20.79      35.04        0.33     4.23   0.599
  31                        23.84       0.00       0.00       9.19       5.77       3.33       9.10        0.32     4.41   0.382
  33                        23.84       0.00       0.00       8.78       5.88       5.25      11.13        0.10     1.32   0.467
  34                        23.84      19.73       0.00      11.14      10.51      10.97      21.48        0.44     5.76   0.493
  35                        23.84       0.00       0.00       9.16       5.79       3.53       9.32        0.28     3.86   0.391
  36                        23.84      19.12       0.00      11.45      10.11       7.47      17.57        1.04    13.15   0.409
  39                        23.84       0.00       0.00       9.18       5.78       3.38       9.16        0.31     4.26   0.384
  40                        23.84       4.92       0.00       9.84       6.91       4.48      11.39        0.45     5.66   0.396
  41                        23.84       0.00       0.00       9.04       5.83       4.11       9.94        0.19     2.63   0.417
  42                        23.84       0.00       0.00       9.08       5.82       3.89       9.71        0.22     3.03   0.407
  43                        23.84       0.00       0.00       8.45       5.91       6.57      12.48        0.04     0.61   0.524
  44                        23.84     291.21       0.00      18.21      77.45     184.45     261.90        0.97    12.24   0.831
  45                        23.84       0.00       0.00       8.84       5.87       5.00      10.87        0.11     1.52   0.456
  46                        23.84      15.99       0.00      10.76       9.58       9.27      18.85        0.40     5.26   0.473
  47                        23.84       0.00       0.00       8.87       5.87       4.89      10.76        0.12     1.63   0.451
  48                        23.84       7.55       0.00       9.84       7.63       6.99      14.62        0.23     3.02   0.466
  55                        23.84      11.30       0.00       9.92       8.59       9.99      18.58        0.15     2.05   0.529
  56                        23.84      17.50       0.00      10.90       9.94       9.82      19.77        0.42     5.52   0.478
  57                        23.84       0.00       0.00       9.27       5.73       2.94       8.67        0.43     5.88   0.364
  59                        23.84       0.00       0.00       8.77       5.88       5.30      11.18        0.09     1.28   0.469
  60                        23.84      24.51       0.00      10.68      11.84      17.80      29.64        0.15     2.04   0.613
  61                        23.84       0.00       0.00       9.48       5.50       1.75       7.25        1.30    16.87   0.304
  62                        23.84       0.00       0.00       9.49       5.49       1.71       7.19        1.37    17.62   0.302
  64                        23.84       0.00       0.00       8.89       5.86       4.78      10.64        0.13     1.74   0.446
  
  
  ****************************
  Subcatchment Washoff Summary
  ****************************
  
  ------------------------------------------------------------------------------------------
                                 COD         NH3-N            TN            TP            SS
  Subcatchment                    kg            kg            kg            kg            kg
  ------------------------------------------------------------------------------------------
  1                           72.283         0.000         0.000         0.000         0.000
  2                            0.000         0.000         0.000         0.000         0.000
  3                            0.000         0.000         0.000         0.000         0.000
  4                           47.882         0.000         0.000         0.000         0.000
  5                          111.271         0.000         0.000         0.000         0.000
  6                           77.602         0.000         0.000         0.000         0.000
  7                         2145.366         0.000         0.000         0.000         0.000
  8                           68.909         0.000         0.000         0.000         0.000
  9                          130.906         0.000         0.000         0.000         0.000
  17                          61.580         0.000         0.000         0.000         0.000
  18                          70.171         0.000         0.000         0.000         0.000
  28                         242.452         0.000         0.000         0.000         0.000
  29                         120.386         0.000         0.000         0.000         0.000
  30                          81.256         0.000         0.000         0.000         0.000
  31                          60.003         0.000         0.000         0.000         0.000
  33                          19.699         0.000         0.000         0.000         0.000
  34                         125.345         0.000         0.000         0.000         0.000
  35                          53.022         0.000         0.000         0.000         0.000
  36                         326.665         0.000         0.000         0.000         0.000
  39                          58.149         0.000         0.000         0.000         0.000
  40                         103.894         0.000         0.000         0.000         0.000
  41                          37.358         0.000         0.000         0.000         0.000
  42                          42.425         0.000         0.000         0.000         0.000
  43                           9.532         0.000         0.000         0.000         0.000
  44                         307.276         0.000         0.000         0.000         0.000
  45                          22.570         0.000         0.000         0.000         0.000
  46                         121.079         0.000         0.000         0.000         0.000
  47                          23.966         0.000         0.000         0.000         0.000
  48                          59.842         0.000         0.000         0.000         0.000
  55                          41.934         0.000         0.000         0.000         0.000
  56                         125.320         0.000         0.000         0.000         0.000
  57                          78.334         0.000         0.000         0.000         0.000
  59                          19.148         0.000         0.000         0.000         0.000
  60                          40.241         0.000         0.000         0.000         0.000
  61                         210.517         0.000         0.000         0.000         0.000
  62                         219.414         0.000         0.000         0.000         0.000
  64                          25.510         0.000         0.000         0.000         0.000
  ------------------------------------------------------------------------------------------
  System                    5361.308         0.000         0.000         0.000         0.000
  
  
  ******************
  Node Depth Summary
  ******************
  
  ---------------------------------------------------------------------------------
                                 Average  Maximum  Maximum  Time of Max    Reported
                                   Depth    Depth      HGL   Occurrence   Max Depth
  Node                 Type       Meters   Meters   Meters  days hr:min      Meters
  ---------------------------------------------------------------------------------
  WS01000070           JUNCTION     0.00     0.00     0.00     0  00:00        0.00
  WS01000323           JUNCTION     0.00     0.00     0.00     0  00:00        0.00
  WS01000533           JUNCTION     0.00     0.00     6.86     0  00:00        0.00
  WS01005172           JUNCTION     0.00     0.00     0.00     0  00:00        0.00
  WS01005181           JUNCTION     0.00     0.00     0.00     0  00:00        0.00
  WS01009841           JUNCTION     0.00     0.00     0.00     0  00:00        0.00
  WS02000078           JUNCTION     0.00     0.00     0.00     0  00:00        0.00
  WS02000112           JUNCTION     0.00     0.00     0.00     0  00:00        0.00
  WS02000136           JUNCTION     0.00     0.00     0.00     0  00:00        0.00
  WS02001211           JUNCTION     0.45     0.52     5.36     0  03:07        0.52
  WS02001212           JUNCTION     0.40     0.51     5.31     0  03:10        0.50
  WS02001213           JUNCTION     0.50     0.62     5.32     0  03:06        0.61
  WS02003059           JUNCTION     0.50     0.63     5.28     0  03:09        0.63
  WS02003060           JUNCTION     0.57     0.72     5.27     0  03:10        0.71
  WS02003066           JUNCTION     0.25     0.38     5.68     0  03:07        0.37
  WS02003067           JUNCTION     0.43     0.63     5.95     0  03:05        0.62
  WS02003071           JUNCTION     0.62     0.78     5.18     0  03:04        0.78
  WS02003072           JUNCTION     0.53     0.72     5.09     0  03:15        0.72
  WS02003073           JUNCTION     0.61     0.88     5.12     0  03:15        0.87
  WS02003076           JUNCTION     0.56     0.80     5.03     0  03:15        0.77
  WS02003077           JUNCTION     0.09     0.13     5.14     0  01:44        0.13
  WS02003078           JUNCTION     0.06     0.08     6.98     0  01:44        0.08
  WS02003079           JUNCTION     0.18     0.25     7.16     0  01:43        0.25
  WS02003093           JUNCTION     0.05     0.09     7.43     0  03:01        0.09
  WS02003094           JUNCTION     0.16     0.21     7.43     0  03:01        0.21
  WS02003098           JUNCTION     0.11     0.14     7.31     0  03:02        0.14
  WS02003099           JUNCTION     0.21     0.28     7.32     0  03:02        0.28
  WS02003102           JUNCTION     0.19     0.26     7.29     0  01:42        0.26
  WS02003103           JUNCTION     0.21     0.29     7.26     0  01:42        0.29
  WS02003104           JUNCTION     0.20     0.28     7.24     0  01:43        0.28
  WS02003106           JUNCTION     0.20     0.27     7.20     0  01:43        0.27
  WS02004050           JUNCTION     0.38     0.49     4.71     0  03:07        0.48
  WS02004053           JUNCTION     0.00     0.00     0.00     0  00:00        0.00
  WS02004136           JUNCTION     0.17     0.18     6.91     0  01:09        0.18
  WS02004139           JUNCTION     0.36     0.41     5.37     0  03:11        0.41
  WS02004401           JUNCTION     0.43     0.60     6.60     0  03:04        0.60
  WS02004402           JUNCTION     0.44     0.62     6.58     0  03:04        0.62
  WS02004403           JUNCTION     0.44     0.62     6.55     0  03:04        0.62
  WS02004404           JUNCTION     0.52     0.70     6.55     0  03:04        0.70
  WS02004405           JUNCTION     0.52     0.70     6.54     0  03:04        0.70
  WS02004406           JUNCTION     0.50     0.68     6.51     0  03:04        0.68
  WS02004407           JUNCTION     0.48     0.64     6.44     0  03:04        0.64
  WS02004409           JUNCTION     0.46     0.62     6.39     0  03:04        0.62
  WS02004410           JUNCTION     0.45     0.60     6.32     0  03:04        0.60
  WS02004411           JUNCTION     0.42     0.56     6.24     0  03:04        0.56
  WS02004412           JUNCTION     0.36     0.50     6.14     0  03:04        0.50
  WS02004413           JUNCTION     0.38     0.53     6.00     0  03:05        0.53
  WS02004997           JUNCTION     5.96     6.90     8.51     0  01:23        6.73
  WS02005192           JUNCTION     0.19     0.29     8.16     0  01:23        0.28
  WS02005193           JUNCTION     0.22     0.30     8.12     0  01:38        0.30
  WS02005196           JUNCTION     0.21     0.28     8.13     0  01:38        0.28
  WS02006109           JUNCTION     0.47     0.63     7.25     0  03:03        0.63
  WS02006110           JUNCTION     0.43     0.57     7.17     0  03:03        0.57
  WS02006111           JUNCTION     0.24     0.34     6.92     0  03:03        0.34
  WS02006112           JUNCTION     0.45     0.60     6.72     0  03:04        0.60
  WS02006113           JUNCTION     0.37     0.48     7.07     0  03:02        0.48
  WS02006115           JUNCTION     0.40     0.56     6.66     0  03:04        0.56
  WS02006116           JUNCTION     0.43     0.60     6.64     0  03:04        0.60
  WS02006183           JUNCTION     0.00     0.00     0.00     0  00:00        0.00
  WS02006228           JUNCTION     0.48     0.65     7.30     0  03:04        0.65
  WS02006229           JUNCTION     0.45     0.62     7.31     0  03:04        0.62
  WS02006230           JUNCTION     0.42     0.60     7.35     0  03:04        0.60
  WS02006231           JUNCTION     0.32     0.47     7.37     0  03:04        0.47
  WS02006232           JUNCTION     0.29     0.41     7.44     0  03:03        0.41
  WS02006234           JUNCTION     0.28     0.38     7.54     0  03:04        0.38
  WS02006235           JUNCTION     0.33     0.44     7.61     0  03:03        0.44
  WS02006238           JUNCTION     0.33     0.45     7.63     0  03:03        0.45
  WS02006239           JUNCTION     0.36     0.48     7.69     0  03:03        0.48
  WS02006242           JUNCTION     0.38     0.52     7.82     0  03:03        0.52
  WS02006240           JUNCTION     0.32     0.45     7.74     0  03:03        0.45
  WS02006243           JUNCTION     0.31     0.44     7.86     0  03:03        0.44
  WS02006245           JUNCTION     0.31     0.44     7.93     0  03:02        0.44
  WS02006247           JUNCTION     0.34     0.47     7.98     0  03:02        0.47
  WS02006248           JUNCTION     0.28     0.41     8.00     0  03:02        0.41
  WS02006249           JUNCTION     0.31     0.43     8.03     0  03:02        0.43
  WS02006251           JUNCTION     0.30     0.42     8.09     0  03:02        0.42
  WS02006253           JUNCTION     0.22     0.32     8.12     0  01:39        0.32
  WS02618401           JUNCTION     0.00     0.00     0.00     0  00:00        0.00
  WS8802               JUNCTION     0.00     0.00     4.38     0  00:00        0.00
  WSA1649              JUNCTION     0.00     0.00     0.00     0  00:00        0.00
  WSF200               JUNCTION     0.24     0.38     5.48     0  03:11        0.35
  XR-Inflow            JUNCTION     5.78     6.55     8.36     0  01:23        6.55
  WS02004114           JUNCTION     5.96     7.06     8.66     0  01:23        6.73
  outfall-2            OUTFALL      0.00     0.00     7.00     0  00:00        0.00
  outfall-5            OUTFALL      0.00     0.00     7.67     0  00:00        0.00
  outfall-14           OUTFALL      0.00     0.00     7.66     0  00:00        0.00
  outfall-16           OUTFALL      0.00     0.00     8.39     0  00:00        0.00
  12                   OUTFALL      0.38     0.48     0.48     0  03:10        0.48
  XR-storage           STORAGE      7.05     8.22     8.72     0  01:23        7.83
  CC-storage           STORAGE      3.65     5.03     8.21     0  02:34        5.03
  JK-storage           STORAGE      4.17     4.80     7.80     0  01:26        4.80
  
  
  *******************
  Node Inflow Summary
  *******************
  
  -------------------------------------------------------------------------------------------------
                                  Maximum  Maximum                  Lateral       Total        Flow
                                  Lateral    Total  Time of Max      Inflow      Inflow     Balance
                                   Inflow   Inflow   Occurrence      Volume      Volume       Error
  Node                 Type           MLD      MLD  days hr:min    10^6 ltr    10^6 ltr     Percent
  -------------------------------------------------------------------------------------------------
  WS01000070           JUNCTION      0.00     0.00     0  00:00           0           0       0.000 ltr
  WS01000323           JUNCTION      0.00     0.00     0  00:00           0           0       0.000 ltr
  WS01000533           JUNCTION      0.00     0.00     0  00:00           0           0       0.000 ltr
  WS01005172           JUNCTION      0.00     0.00     0  00:00           0           0       0.000 ltr
  WS01005181           JUNCTION      0.00     0.00     0  00:00           0           0       0.000 ltr
  WS01009841           JUNCTION      0.00     0.00     0  00:00           0           0       0.000 ltr
  WS02000078           JUNCTION      0.00     0.00     0  00:00           0           0       0.000 ltr
  WS02000112           JUNCTION      0.00     0.00     0  00:00           0           0       0.000 ltr
  WS02000136           JUNCTION      0.00     0.00     0  00:00           0           0       0.000 ltr
  WS02001211           JUNCTION      0.25    34.47     0  03:14      0.0407        4.95       0.531
  WS02001212           JUNCTION      0.21    36.71     0  03:15      0.0346        4.96       0.303
  WS02001213           JUNCTION      0.30    42.07     0  03:21      0.0489           5       0.425
  WS02003059           JUNCTION      0.23    38.34     0  03:23      0.0378        5.01       0.574
  WS02003060           JUNCTION      0.16   122.01     0  03:11      0.0252        11.6       0.372
  WS02003066           JUNCTION      0.08   101.79     0  03:05      0.0122        6.59       0.234
  WS02003067           JUNCTION      0.26    76.67     0  03:08      0.0395        6.59       0.152
  WS02003071           JUNCTION      0.35   113.04     0  03:12      0.0538        11.6       0.400
  WS02003072           JUNCTION      0.24   114.35     0  03:08      0.0382        11.6       0.257
  WS02003073           JUNCTION      0.07   131.73     0  03:08     0.00978        12.5       0.231
  WS02003076           JUNCTION      0.72   156.02     0  03:03        0.12        12.6       0.116
  WS02003077           JUNCTION      0.04    11.20     0  01:43      0.0059       0.919       0.115
  WS02003078           JUNCTION      0.03    12.87     0  01:44     0.00419       0.912      -0.131
  WS02003079           JUNCTION      0.04    11.11     0  01:43     0.00561        0.91       0.261
  WS02003093           JUNCTION      0.02     0.12     0  01:27     0.00306     0.00359       2.515
  WS02003094           JUNCTION      6.51     6.51     0  03:01       0.517        0.52       0.678
  WS02003098           JUNCTION      0.02     6.46     0  03:01     0.00293       0.519       0.437
  WS02003099           JUNCTION      0.07     6.48     0  03:02      0.0109       0.528       0.895
  WS02003102           JUNCTION      5.15    11.01     0  01:41        0.38       0.903       0.439
  WS02003103           JUNCTION      0.02    11.02     0  01:42     0.00239       0.902       0.307
  WS02003104           JUNCTION      0.02    11.03     0  01:42     0.00302       0.902       0.255
  WS02003106           JUNCTION      0.05    11.07     0  01:43     0.00728       0.907       0.311
  WS02004050           JUNCTION      0.72   153.00     0  03:15       0.119        12.7       0.579
  WS02004053           JUNCTION      0.00     0.00     0  00:00           0           0       0.000 ltr
  WS02004136           JUNCTION      0.44    32.92     0  01:09      0.0703        4.87       0.062
  WS02004139           JUNCTION      0.38    33.71     0  01:09      0.0619        4.93       0.359
  WS02004401           JUNCTION      0.05    53.09     0  03:04     0.00897        4.61       0.220
  WS02004402           JUNCTION      0.22    53.29     0  03:05      0.0335        4.63       0.209
  WS02004403           JUNCTION      0.23    53.52     0  03:05      0.0349        4.65       0.185
  WS02004404           JUNCTION      0.24    53.77     0  03:06      0.0365        4.68       0.159
  WS02004405           JUNCTION      3.52    56.42     0  03:05       0.264        4.94       0.233
  WS02004406           JUNCTION      9.51    65.29     0  03:04        0.74        5.67       0.318
  WS02004407           JUNCTION      0.11    65.41     0  03:05      0.0171        5.67       0.285
  WS02004409           JUNCTION      5.45    70.38     0  03:04       0.441        6.09       0.236
  WS02004410           JUNCTION      0.15    70.53     0  03:04      0.0226         6.1       0.238
  WS02004411           JUNCTION      0.25    70.76     0  03:05      0.0379        6.12       0.209
  WS02004412           JUNCTION      5.92    75.31     0  03:04       0.443        6.55       0.166
  WS02004413           JUNCTION      0.11    75.40     0  03:04      0.0172        6.56       0.164
  WS02004997           JUNCTION      0.42    50.79     0  01:23      0.0693        4.88       0.787
  WS02005192           JUNCTION      6.00     6.00     0  01:38        0.45       0.451       0.104
  WS02005193           JUNCTION      0.09     6.87     0  01:22      0.0146        0.49       0.208
  WS02005196           JUNCTION      0.12     6.12     0  01:38       0.019       0.471       0.228
  WS02006109           JUNCTION      0.08    47.45     0  03:04      0.0135        4.06       0.256
  WS02006110           JUNCTION      0.08    47.55     0  03:05      0.0132        4.07       0.241
  WS02006111           JUNCTION      0.24    52.73     0  03:03      0.0366        4.55       0.088
  WS02006112           JUNCTION      0.18    52.88     0  03:03      0.0273        4.58       0.214
  WS02006113           JUNCTION      6.15    52.54     0  03:03       0.467        4.52       0.158
  WS02006115           JUNCTION      0.08    52.91     0  03:03      0.0134        4.58       0.224
  WS02006116           JUNCTION      0.24    53.06     0  03:04       0.036        4.61       0.222
  WS02006183           JUNCTION      0.00     0.00     0  00:00           0           0       0.000 ltr
  WS02006228           JUNCTION     12.39    47.36     0  03:04       0.995        4.06       0.190
  WS02006229           JUNCTION      0.13    35.04     0  03:04        0.02        3.07       0.199
  WS02006230           JUNCTION      0.07    34.92     0  03:04      0.0116        3.06       0.190
  WS02006231           JUNCTION      0.13    34.85     0  03:03      0.0205        3.05       0.087
  WS02006232           JUNCTION      4.31    34.75     0  03:03       0.322        3.03       0.087
  WS02006234           JUNCTION      0.14    31.29     0  03:04      0.0216        2.71       0.091
  WS02006235           JUNCTION      0.14    31.17     0  03:04      0.0223        2.69       0.059
  WS02006238           JUNCTION      0.15    31.04     0  03:04      0.0235        2.67       0.084
  WS02006239           JUNCTION      0.11    30.91     0  03:03      0.0174        2.65       0.142
  WS02006242           JUNCTION      0.08    30.78     0  03:02      0.0129        2.63       0.180
  WS02006240           JUNCTION      0.06    30.82     0  03:03     0.00992        2.63       0.120
  WS02006243           JUNCTION      0.17    30.73     0  03:02      0.0269        2.62       0.108
  WS02006245           JUNCTION      0.07    30.60     0  03:02      0.0113        2.59       0.092
  WS02006247           JUNCTION      5.36    30.54     0  03:01       0.419        2.59       0.098
  WS02006248           JUNCTION      0.12    25.62     0  01:39      0.0192        2.17       0.043
  WS02006249           JUNCTION      0.19    25.51     0  01:39      0.0286        2.15       0.101
  WS02006251           JUNCTION      2.11    25.33     0  01:38       0.164        2.12       0.078
  WS02006253           JUNCTION      0.11    23.60     0  01:38      0.0173        1.97       0.017
  WS02618401           JUNCTION      0.00     0.00     0  00:00           0           0       0.000 ltr
  WS8802               JUNCTION      0.00     0.00     0  00:00           0           0       0.000 ltr
  WSA1649              JUNCTION      0.00     0.00     0  00:00           0           0       0.000 ltr
  WSF200               JUNCTION      0.14    89.40     0  03:10      0.0216         6.6      -0.017
  XR-Inflow            JUNCTION    180.77   180.77     0  03:01          16          16       0.142
  WS02004114           JUNCTION      0.57    51.24     0  01:23      0.0916        4.93       0.447
  outfall-2            OUTFALL       0.00     0.00     0  00:00           0           0       0.000 ltr
  outfall-5            OUTFALL       0.00     0.00     0  00:00           0           0       0.000 ltr
  outfall-14           OUTFALL       0.00     0.00     0  00:00           0           0       0.000 ltr
  outfall-16           OUTFALL       0.00     0.00     0  00:00           0           0       0.000 ltr
  12                   OUTFALL       0.00   128.49     0  03:10           0        12.6       0.000
  XR-storage           STORAGE       0.00    51.17     0  01:23           0        4.91       0.949
  CC-storage           STORAGE      18.79    18.79     0  01:44        1.59        1.59       0.001
  JK-storage           STORAGE      18.80    18.80     0  01:45        1.54        1.54       0.005
  
  
  **********************
  Node Surcharge Summary
  **********************
  
  Surcharging occurs when water rises above the top of the highest conduit.
  ---------------------------------------------------------------------
                                               Max. Height   Min. Depth
                                   Hours       Above Crown    Below Rim
  Node                 Type      Surcharged         Meters       Meters
  ---------------------------------------------------------------------
  WS01000070           JUNCTION        4.00          0.000        0.000
  WS01000323           JUNCTION        4.00          0.000        0.000
  WS01000533           JUNCTION        4.00          0.000        2.147
  WS01005172           JUNCTION        4.00          0.000        0.000
  WS01005181           JUNCTION        4.00          0.000        0.000
  WS01009841           JUNCTION        4.00          0.000        0.000
  WS02000078           JUNCTION        4.00          0.000        0.000
  WS02000112           JUNCTION        4.00          0.000        0.000
  WS02000136           JUNCTION        4.00          0.000        0.000
  WS02004053           JUNCTION        4.00          0.000        0.000
  WS02004997           JUNCTION        3.88          6.000        0.000
  WS02006183           JUNCTION        4.00          0.000        0.000
  WS02618401           JUNCTION        4.00          0.000        0.000
  WS8802               JUNCTION        4.00          0.000        4.942
  WSA1649              JUNCTION        4.00          0.000        0.000
  XR-Inflow            JUNCTION        3.87          5.650        0.000
  WS02004114           JUNCTION        3.88          6.161        0.354
  XR-storage           STORAGE         3.96          7.320        0.000
  
  
  *********************
  Node Flooding Summary
  *********************
  
  Flooding refers to all water that overflows a node, whether it ponds or not.
  --------------------------------------------------------------------------
                                                             Total   Maximum
                                 Maximum   Time of Max       Flood    Ponded
                        Hours       Rate    Occurrence      Volume     Depth
  Node                 Flooded       MLD   days hr:min    10^6 ltr    Meters
  --------------------------------------------------------------------------
  WS02004997              0.01      4.11      0  01:23       0.000     0.000
  XR-Inflow               2.61    149.21      0  03:01      11.162     0.000
  XR-storage              0.01     16.50      0  01:23       0.001     0.500
  JK-storage              2.56     18.80      0  01:45       1.406     0.000
  
  
  **********************
  Storage Volume Summary
  **********************
  
  --------------------------------------------------------------------------------------------------
                         Average     Avg  Evap Exfil       Maximum     Max    Time of Max    Maximum
                          Volume    Pcnt  Pcnt  Pcnt        Volume    Pcnt     Occurrence    Outflow
  Storage Unit           1000 m3    Full  Loss  Loss       1000 m3    Full    days hr:min        MLD
  --------------------------------------------------------------------------------------------------
  XR-storage               0.057      90     0     0         0.063     100       0  01:23      32.48
  CC-storage               0.103      65     0     0         0.142      89       0  02:34      17.28
  JK-storage               0.118      87     0     0         0.136     100       0  01:26       0.00
  
  
  ***********************
  Outfall Loading Summary
  ***********************
  
  ---------------------------------------------------------------------------------------------------------------------------------
                         Flow       Avg       Max       Total         Total         Total         Total         Total         Total
                         Freq      Flow      Flow      Volume           COD         NH3-N            TN            TP            SS
  Outfall Node           Pcnt       MLD       MLD    10^6 ltr            kg            kg            kg            kg            kg
  ---------------------------------------------------------------------------------------------------------------------------------
  outfall-2              0.00      0.00      0.00       0.000         0.000         0.000         0.000         0.000         0.000
  outfall-5              0.00      0.00      0.00       0.000         0.000         0.000         0.000         0.000         0.000
  outfall-14             0.00      0.00      0.00       0.000         0.000         0.000         0.000         0.000         0.000
  outfall-16             0.00      0.00      0.00       0.000         0.000         0.000         0.000         0.000         0.000
  12                    99.98     88.71    128.49      12.628      2394.975         0.000         0.000         0.000         0.000
  ---------------------------------------------------------------------------------------------------------------------------------
  System                20.00     88.71    128.49      12.628      2394.975         0.000         0.000         0.000         0.000
  
  
  ********************
  Link Flow Summary
  ********************
  
  -----------------------------------------------------------------------------
                                 Maximum  Time of Max   Maximum    Max/    Max/
                                  |Flow|   Occurrence   |Veloc|    Full    Full
  Link                 Type          MLD  days hr:min     m/sec    Flow   Depth
  -----------------------------------------------------------------------------
  WSL49                CONDUIT    155.30     0  03:03      2.50    1.93    0.68
  WSL1465              CONDUIT     40.52     0  02:55      1.65    0.37    0.67
  WSL1472              CONDUIT    114.13     0  03:08      1.91    1.30    0.61
  WSL1475              CONDUIT    152.28     0  03:15      2.94    1.63    0.44
  WSL1476              CONDUIT     11.18     0  01:44      0.59    0.05    0.58
  WSL1477              CONDUIT     12.84     0  01:44      2.32    0.51    0.28
  WSL1490              CONDUIT     36.50     0  03:15      1.38    0.59    0.51
  WSL1491              CONDUIT     41.79     0  03:21      1.44    0.24    0.54
  WSL1492              CONDUIT     38.12     0  03:23      1.38    0.59    0.62
  WSL1507              CONDUIT      0.10     0  03:02      0.13    0.00    0.19
  WSL1508              CONDUIT      6.44     0  03:01      0.89    0.18    0.22
  WSL1512              CONDUIT      6.43     0  03:02      0.62    0.04    0.21
  WSL1513              CONDUIT      6.52     0  03:03      0.51    0.38    0.34
  WSL1515              CONDUIT    101.72     0  03:05      2.78    0.99    0.40
  WSL1516              CONDUIT     11.16     0  01:43      3.95    0.04    0.17
  WSL1518              CONDUIT     11.00     0  01:42      0.83    0.22    0.35
  WSL1519              CONDUIT     11.03     0  01:43      0.83    0.27    0.35
  WSL1521              CONDUIT     11.07     0  01:43      0.89    0.32    0.33
  WSL1543              CONDUIT     11.01     0  01:42      0.80    0.34    0.35
  WSL1961              CONDUIT     33.33     0  01:09      3.05    0.07    0.29
  WSL1964              CONDUIT     34.23     0  03:14      1.38    0.19    0.38
  WSL2010              CONDUIT     53.34     0  03:05      1.26    0.68    0.62
  WSL2011              CONDUIT     53.58     0  03:06      1.13    0.34    0.66
  WSL2012              CONDUIT     53.81     0  03:06      1.06    0.82    0.70
  WSL2013              CONDUIT     56.45     0  03:05      1.13    1.40    0.69
  WSL2014              CONDUIT     65.32     0  03:05      1.38    1.04    0.66
  WSL2015              CONDUIT     65.46     0  03:05      1.46    0.88    0.63
  WSL2016              CONDUIT     70.40     0  03:04      1.63    0.81    0.61
  WSL2017              CONDUIT     70.56     0  03:05      1.77    0.86    0.58
  WSL2018              CONDUIT     75.31     0  03:04      2.23    0.45    0.51
  WSL2019              CONDUIT     76.46     0  03:08      2.11    0.45    0.58
  WSL2028              CONDUIT     53.11     0  03:05      1.26    0.57    0.61
  WSL2029              CONDUIT     70.82     0  03:05      2.01    0.90    0.53
  WSL2038              CONDUIT      6.00     0  01:38      0.68    0.30    0.46
  WSL2039              CONDUIT      9.54     0  02:28      1.38    0.49    0.52
  WSL2041              CONDUIT      6.20     0  02:28      0.89    0.30    0.49
  WSL2294              CONDUIT     47.48     0  03:05      1.37    1.59    0.75
  WSL2295              CONDUIT     47.59     0  03:05      1.58    2.14    0.66
  WSL2296              CONDUIT     52.73     0  03:03      2.00    0.30    0.59
  WSL2297              CONDUIT     52.83     0  03:03      1.32    1.01    0.58
  WSL2298              CONDUIT     52.54     0  03:03      2.35    2.42    0.51
  WSL2301              CONDUIT     52.86     0  03:04      1.32    0.49    0.58
  WSL2302              CONDUIT     53.04     0  03:04      1.28    0.65    0.60
  WSL2441              CONDUIT     47.38     0  03:04      1.28    1.21    0.80
  WSL2442              CONDUIT     34.93     0  03:04      1.31    0.89    0.87
  WSL2443              CONDUIT     34.85     0  03:04      1.48    0.54    0.76
  WSL2444              CONDUIT     34.74     0  03:03      1.74    0.55    0.62
  WSL2446              CONDUIT     31.31     0  03:04      1.66    0.54    0.56
  WSL2447              CONDUIT     31.18     0  03:04      1.54    1.60    0.59
  WSL2448              CONDUIT     31.05     0  03:04      1.40    0.87    0.63
  WSL2449              CONDUIT     30.91     0  03:04      1.32    1.08    0.66
  WSL2450              CONDUIT     30.82     0  03:03      1.31    0.64    0.66
  WSL2451              CONDUIT     30.76     0  03:03      1.26    2.01    0.69
  WSL2452              CONDUIT     30.71     0  03:02      1.31    0.59    0.68
  WSL2454              CONDUIT     30.58     0  03:02      1.47    0.71    0.63
  WSL2478              CONDUIT     30.53     0  03:02      1.37    1.08    0.65
  WSL2479              CONDUIT     25.61     0  01:39      1.25    0.49    0.62
  WSL2480              CONDUIT     25.50     0  01:39      1.28    1.18    0.60
  WSL2482              CONDUIT     25.32     0  01:39      1.24    0.66    0.61
  WSL2484              CONDUIT     23.60     0  01:38      1.73    0.33    0.53
  WSL2493              CONDUIT     35.06     0  03:04      1.07    0.59    0.79
  WSL2867              CONDUIT     89.28     0  03:10      3.82    0.18    0.30
  WSL2868              CONDUIT     83.34     0  03:10      2.03    0.16    0.45
  WSL348               CONDUIT     50.36     0  01:23      1.86    0.46    1.00
  WSL175               CONDUIT     50.67     0  01:23      2.30    1.71    1.00
  WSL1467              CONDUIT    112.75     0  03:12      1.81    0.60    0.62
  WSL1473              CONDUIT    121.35     0  03:08      2.05    0.50    0.66
  XRpipe               CONDUIT     51.17     0  01:23      2.53    0.13    1.00
  8                    CONDUIT      0.00     0  00:00      0.00    0.00    0.00
  19                   CONDUIT      0.00     0  00:00      0.00    0.00    0.00
  17                   CONDUIT      0.00     0  00:00      0.00    0.00    0.00
  4                    CONDUIT      0.00     0  00:00      0.00    0.00    0.00
  2                    CONDUIT    128.49     0  03:10      4.00    0.46    0.48
  XR-Pump-1            PUMP         8.12     0  00:08              1.00
  XR-Pump-3            PUMP         8.12     0  00:09              1.00
  XR-Pump-2            PUMP         8.12     0  00:09              1.00
  XR-Pump-4            PUMP         8.12     0  01:09              1.00
  CC-Pump-1            PUMP        17.28     0  01:21              1.00
  CC-Pump-2            PUMP         0.00     0  00:00              0.00
  JK-Pump-1            PUMP         0.00     0  00:00              0.00
  JK-Pump-2            PUMP         0.00     0  00:00              0.00
  
  
  ***************************
  Flow Classification Summary
  ***************************
  
  -------------------------------------------------------------------------------------
                      Adjusted    ---------- Fraction of Time in Flow Class ---------- 
                       /Actual         Up    Down  Sub   Sup   Up    Down  Norm  Inlet 
  Conduit               Length    Dry  Dry   Dry   Crit  Crit  Crit  Crit  Ltd   Ctrl  
  -------------------------------------------------------------------------------------
  WSL49                   1.00   0.00  0.00  0.00  0.99  0.01  0.00  0.00  0.00  0.00
  WSL1465                 1.00   0.00  0.00  0.00  1.00  0.00  0.00  0.00  0.10  0.00
  WSL1472                 1.00   0.00  0.00  0.00  1.00  0.00  0.00  0.00  0.00  0.00
  WSL1475                 1.00   0.00  0.00  0.00  0.18  0.82  0.00  0.00  0.01  0.00
  WSL1476                 1.00   0.00  0.00  0.00  1.00  0.00  0.00  0.00  1.00  0.00
  WSL1477                 1.00   0.00  0.00  0.00  0.00  1.00  0.00  0.00  0.35  0.00
  WSL1490                 1.00   0.00  0.00  0.00  1.00  0.00  0.00  0.00  0.00  0.00
  WSL1491                 1.00   0.00  0.00  0.00  1.00  0.00  0.00  0.00  0.04  0.00
  WSL1492                 1.00   0.00  0.00  0.00  1.00  0.00  0.00  0.00  0.01  0.00
  WSL1507                 1.00   0.00  0.00  0.00  1.00  0.00  0.00  0.00  0.33  0.00
  WSL1508                 1.00   0.00  0.00  0.00  1.00  0.00  0.00  0.00  0.00  0.00
  WSL1512                 1.00   0.00  0.00  0.00  1.00  0.00  0.00  0.00  0.98  0.00
  WSL1513                 1.00   0.00  0.00  0.00  1.00  0.00  0.00  0.00  0.00  0.00
  WSL1515                 1.00   0.00  0.00  0.00  0.15  0.85  0.00  0.00  0.06  0.00
  WSL1516                 1.00   0.00  0.00  0.00  0.00  1.00  0.00  0.00  1.00  0.00
  WSL1518                 1.00   0.00  0.00  0.00  1.00  0.00  0.00  0.00  0.31  0.00
  WSL1519                 1.00   0.00  0.00  0.00  1.00  0.00  0.00  0.00  0.30  0.00
  WSL1521                 1.00   0.00  0.00  0.00  1.00  0.00  0.00  0.00  0.02  0.00
  WSL1543                 1.00   0.00  0.00  0.00  1.00  0.00  0.00  0.00  0.02  0.00
  WSL1961                 1.00   0.00  0.00  0.00  0.01  0.99  0.00  0.00  0.98  0.00
  WSL1964                 1.00   0.00  0.00  0.00  1.00  0.00  0.00  0.00  0.05  0.00
  WSL2010                 1.00   0.00  0.00  0.00  1.00  0.00  0.00  0.00  0.02  0.00
  WSL2011                 1.00   0.00  0.00  0.00  1.00  0.00  0.00  0.00  0.26  0.00
  WSL2012                 1.00   0.00  0.00  0.00  1.00  0.00  0.00  0.00  0.00  0.00
  WSL2013                 1.00   0.00  0.00  0.00  1.00  0.00  0.00  0.00  0.00  0.00
  WSL2014                 1.00   0.00  0.00  0.00  1.00  0.00  0.00  0.00  0.00  0.00
  WSL2015                 1.00   0.00  0.00  0.00  1.00  0.00  0.00  0.00  0.02  0.00
  WSL2016                 1.00   0.00  0.00  0.00  1.00  0.00  0.00  0.00  0.01  0.00
  WSL2017                 1.00   0.00  0.00  0.00  1.00  0.00  0.00  0.00  0.04  0.00
  WSL2018                 1.00   0.00  0.00  0.00  0.01  0.99  0.00  0.00  0.08  0.00
  WSL2019                 1.00   0.00  0.00  0.00  0.73  0.27  0.00  0.00  0.10  0.00
  WSL2028                 1.00   0.00  0.00  0.00  1.00  0.00  0.00  0.00  0.06  0.00
  WSL2029                 1.00   0.00  0.00  0.00  0.64  0.36  0.00  0.00  0.00  0.00
  WSL2038                 1.00   0.00  0.00  0.00  1.00  0.00  0.00  0.00  0.03  0.00
  WSL2039                 1.00   0.00  0.00  0.00  0.91  0.09  0.00  0.00  0.01  0.00
  WSL2041                 1.00   0.00  0.00  0.00  1.00  0.00  0.00  0.00  0.27  0.00
  WSL2294                 1.00   0.00  0.00  0.00  1.00  0.00  0.00  0.00  0.00  0.00
  WSL2295                 1.00   0.00  0.00  0.00  1.00  0.00  0.00  0.00  0.00  0.00
  WSL2296                 1.00   0.00  0.00  0.00  0.15  0.85  0.00  0.00  0.43  0.00
  WSL2297                 1.00   0.00  0.00  0.00  1.00  0.00  0.00  0.00  0.00  0.00
  WSL2298                 1.00   0.00  0.00  0.00  0.04  0.96  0.00  0.00  0.00  0.00
  WSL2301                 1.00   0.00  0.00  0.00  1.00  0.00  0.00  0.00  0.08  0.00
  WSL2302                 1.00   0.00  0.00  0.00  1.00  0.00  0.00  0.00  0.02  0.00
  WSL2441                 1.00   0.00  0.00  0.00  1.00  0.00  0.00  0.00  0.01  0.00
  WSL2442                 1.00   0.00  0.00  0.00  1.00  0.00  0.00  0.00  0.19  0.00
  WSL2443                 1.00   0.00  0.00  0.00  1.00  0.00  0.00  0.00  0.34  0.00
  WSL2444                 1.00   0.00  0.00  0.00  0.58  0.42  0.00  0.00  0.25  0.00
  WSL2446                 1.00   0.00  0.00  0.00  0.63  0.37  0.00  0.00  0.14  0.00
  WSL2447                 1.00   0.00  0.00  0.00  1.00  0.00  0.00  0.00  0.00  0.00
  WSL2448                 1.00   0.00  0.00  0.00  1.00  0.00  0.00  0.00  0.01  0.00
  WSL2449                 1.00   0.00  0.00  0.00  1.00  0.00  0.00  0.00  0.02  0.00
  WSL2450                 1.00   0.00  0.00  0.00  1.00  0.00  0.00  0.00  0.32  0.00
  WSL2451                 1.00   0.00  0.00  0.00  1.00  0.00  0.00  0.00  0.00  0.00
  WSL2452                 1.00   0.00  0.00  0.00  1.00  0.00  0.00  0.00  0.39  0.00
  WSL2454                 1.00   0.00  0.00  0.00  1.00  0.00  0.00  0.00  0.06  0.00
  WSL2478                 1.00   0.00  0.00  0.00  1.00  0.00  0.00  0.00  0.00  0.00
  WSL2479                 1.00   0.00  0.00  0.00  1.00  0.00  0.00  0.00  0.34  0.00
  WSL2480                 1.00   0.00  0.00  0.00  1.00  0.00  0.00  0.00  0.00  0.00
  WSL2482                 1.00   0.00  0.00  0.00  1.00  0.00  0.00  0.00  0.40  0.00
  WSL2484                 1.00   0.00  0.00  0.00  0.99  0.01  0.00  0.00  0.47  0.00
  WSL2493                 1.00   0.00  0.00  0.00  1.00  0.00  0.00  0.00  0.05  0.00
  WSL2867                 1.00   0.00  0.00  0.00  0.00  1.00  0.00  0.00  0.22  0.00
  WSL2868                 1.00   0.00  0.00  0.00  0.95  0.05  0.00  0.00  0.59  0.00
  WSL348                  1.00   0.00  0.00  0.00  1.00  0.00  0.00  0.00  0.01  0.00
  WSL175                  1.00   0.00  0.00  0.00  1.00  0.00  0.00  0.00  0.00  0.00
  WSL1467                 1.00   0.00  0.00  0.00  1.00  0.00  0.00  0.00  0.05  0.00
  WSL1473                 1.00   0.00  0.00  0.00  1.00  0.00  0.00  0.00  0.05  0.00
  XRpipe                  1.00   0.00  0.00  0.00  1.00  0.00  0.00  0.00  0.00  0.00
  8                       1.00   1.00  0.00  0.00  0.00  0.00  0.00  0.00  0.00  0.00
  19                      1.00   1.00  0.00  0.00  0.00  0.00  0.00  0.00  0.00  0.00
  17                      1.00   1.00  0.00  0.00  0.00  0.00  0.00  0.00  0.00  0.00
  4                       1.00   1.00  0.00  0.00  0.00  0.00  0.00  0.00  0.00  0.00
  2                       1.00   0.00  0.00  0.00  0.00  1.00  0.00  0.00  0.20  0.00
  
  
  *************************
  Conduit Surcharge Summary
  *************************
  
  ----------------------------------------------------------------------------
                                                           Hours        Hours 
                         --------- Hours Full --------   Above Full   Capacity
  Conduit                Both Ends  Upstream  Dnstream   Normal Flow   Limited
  ----------------------------------------------------------------------------
  WSL49                       0.01      0.01      0.01      2.20         0.01
  WSL1472                     0.01      0.01      0.01      1.87         0.01
  WSL1475                     0.01      0.01      0.01      1.77         0.01
  WSL1476                     0.01      0.01      0.09      0.01         0.01
  WSL2013                     0.01      0.01      0.01      1.79         0.01
  WSL2014                     0.01      0.01      0.01      0.22         0.01
  WSL2294                     0.01      0.01      0.01      1.98         0.01
  WSL2295                     0.01      0.01      0.01      2.31         0.01
  WSL2297                     0.01      0.01      0.01      0.11         0.01
  WSL2298                     0.01      0.01      0.01      2.37         0.01
  WSL2441                     0.01      0.01      0.01      1.46         0.01
  WSL2447                     0.01      0.01      0.01      1.97         0.01
  WSL2449                     0.01      0.01      0.01      0.79         0.01
  WSL2451                     0.01      0.01      0.01      2.06         0.01
  WSL2478                     0.01      0.01      0.01      0.69         0.01
  WSL2480                     0.01      0.01      0.01      1.65         0.01
  WSL348                      3.87      3.87      3.88      0.01         0.01
  WSL175                      3.88      3.88      3.88      2.79         2.87
  XRpipe                      3.88      3.88      3.96      0.01         0.01
  
  
  ***************
  Pumping Summary
  ***************
  
  ---------------------------------------------------------------------------------------------------------
                                                  Min       Avg       Max     Total     Power    % Time Off
                        Percent   Number of      Flow      Flow      Flow    Volume     Usage    Pump Curve
  Pump                 Utilized   Start-Ups       MLD       MLD       MLD  10^6 ltr     Kw-hr    Low   High
  ---------------------------------------------------------------------------------------------------------
  XR-Pump-1               96.39           1      0.00      8.12      8.12     1.305      6.39    0.0   67.7
  XR-Pump-3               91.79          16      0.00      8.12      8.12     1.242      5.93    0.0   71.1
  XR-Pump-2               96.26           1      0.00      8.12      8.12     1.303      6.38    0.0   67.8
  XR-Pump-4               70.34           4      0.00      8.12      8.12     0.952      3.75    0.0   92.8
  CC-Pump-1               50.76           4      0.00     17.28     17.28     1.462      3.66    0.0    0.0
  CC-Pump-2                0.00           0      0.00      0.00      0.00     0.000      0.00    0.0    0.0
  JK-Pump-1                0.00           0      0.00      0.00      0.00     0.000      0.00    0.0    0.0
  JK-Pump-2                0.00           0      0.00      0.00      0.00     0.000      0.00    0.0    0.0
  
  
  ***************************
  Link Pollutant Load Summary
  ***************************
  
  ------------------------------------------------------------------------------------------
                                 COD         NH3-N            TN            TP            SS
  Link                            kg            kg            kg            kg            kg
  ------------------------------------------------------------------------------------------
  WSL49                     2366.456         0.000         0.000         0.000         0.000
  WSL1465                    820.037         0.000         0.000         0.000         0.000
  WSL1472                   2159.223         0.000         0.000         0.000         0.000
  WSL1475                   2384.731         0.000         0.000         0.000         0.000
  WSL1476                    207.697         0.000         0.000         0.000         0.000
  WSL1477                    205.336         0.000         0.000         0.000         0.000
  WSL1490                    807.752         0.000         0.000         0.000         0.000
  WSL1491                    811.549         0.000         0.000         0.000         0.000
  WSL1492                    817.344         0.000         0.000         0.000         0.000
  WSL1507                      0.843         0.000         0.000         0.000         0.000
  WSL1508                    132.645         0.000         0.000         0.000         0.000
  WSL1512                    132.922         0.000         0.000         0.000         0.000
  WSL1513                    134.149         0.000         0.000         0.000         0.000
  WSL1515                   1334.792         0.000         0.000         0.000         0.000
  WSL1516                    206.092         0.000         0.000         0.000         0.000
  WSL1518                    203.309         0.000         0.000         0.000         0.000
  WSL1519                    203.672         0.000         0.000         0.000         0.000
  WSL1521                    204.578         0.000         0.000         0.000         0.000
  WSL1543                    203.364         0.000         0.000         0.000         0.000
  WSL1961                    795.715         0.000         0.000         0.000         0.000
  WSL1964                    804.238         0.000         0.000         0.000         0.000
  WSL2010                    826.862         0.000         0.000         0.000         0.000
  WSL2011                    831.524         0.000         0.000         0.000         0.000
  WSL2012                    836.598         0.000         0.000         0.000         0.000
  WSL2013                    885.018         0.000         0.000         0.000         0.000
  WSL2014                   1128.213         0.000         0.000         0.000         0.000
  WSL2015                   1128.571         0.000         0.000         0.000         0.000
  WSL2016                   1243.570         0.000         0.000         0.000         0.000
  WSL2017                   1245.182         0.000         0.000         0.000         0.000
  WSL2018                   1328.240         0.000         0.000         0.000         0.000
  WSL2019                   1329.666         0.000         0.000         0.000         0.000
  WSL2028                    822.588         0.000         0.000         0.000         0.000
  WSL2029                   1249.682         0.000         0.000         0.000         0.000
  WSL2038                     81.378         0.000         0.000         0.000         0.000
  WSL2039                     88.457         0.000         0.000         0.000         0.000
  WSL2041                     85.049         0.000         0.000         0.000         0.000
  WSL2294                    804.402         0.000         0.000         0.000         0.000
  WSL2295                    804.977         0.000         0.000         0.000         0.000
  WSL2296                    813.882         0.000         0.000         0.000         0.000
  WSL2297                    817.100         0.000         0.000         0.000         0.000
  WSL2298                    808.340         0.000         0.000         0.000         0.000
  WSL2301                    817.887         0.000         0.000         0.000         0.000
  WSL2302                    822.503         0.000         0.000         0.000         0.000
  WSL2441                    803.799         0.000         0.000         0.000         0.000
  WSL2442                    490.788         0.000         0.000         0.000         0.000
  WSL2443                    489.515         0.000         0.000         0.000         0.000
  WSL2444                    486.384         0.000         0.000         0.000         0.000
  WSL2446                    484.410         0.000         0.000         0.000         0.000
  WSL2447                    481.159         0.000         0.000         0.000         0.000
  WSL2448                    477.666         0.000         0.000         0.000         0.000
  WSL2449                    474.040         0.000         0.000         0.000         0.000
  WSL2450                    471.658         0.000         0.000         0.000         0.000
  WSL2451                    470.443         0.000         0.000         0.000         0.000
  WSL2452                    468.973         0.000         0.000         0.000         0.000
  WSL2454                    464.923         0.000         0.000         0.000         0.000
  WSL2478                    463.412         0.000         0.000         0.000         0.000
  WSL2479                    387.478         0.000         0.000         0.000         0.000
  WSL2480                    384.280         0.000         0.000         0.000         0.000
  WSL2482                    379.808         0.000         0.000         0.000         0.000
  WSL2484                    336.242         0.000         0.000         0.000         0.000
  WSL2493                    493.442         0.000         0.000         0.000         0.000
  WSL2867                   1333.882         0.000         0.000         0.000         0.000
  WSL2868                   1338.454         0.000         0.000         0.000         0.000
  WSL348                     778.628         0.000         0.000         0.000         0.000
  WSL175                     785.515         0.000         0.000         0.000         0.000
  WSL1467                   2156.868         0.000         0.000         0.000         0.000
  WSL1473                   2161.231         0.000         0.000         0.000         0.000
  XRpipe                     798.858         0.000         0.000         0.000         0.000
  8                            0.000         0.000         0.000         0.000         0.000
  19                           0.000         0.000         0.000         0.000         0.000
  17                           0.000         0.000         0.000         0.000         0.000
  4                            0.000         0.000         0.000         0.000         0.000
  2                         2394.975         0.000         0.000         0.000         0.000
  XR-Pump-1                  213.347         0.000         0.000         0.000         0.000
  XR-Pump-3                  202.937         0.000         0.000         0.000         0.000
  XR-Pump-2                  213.034         0.000         0.000         0.000         0.000
  XR-Pump-4                  154.583         0.000         0.000         0.000         0.000
  CC-Pump-1                  246.287         0.000         0.000         0.000         0.000
  CC-Pump-2                    0.000         0.000         0.000         0.000         0.000
  JK-Pump-1                    0.000         0.000         0.000         0.000         0.000
  JK-Pump-2                    0.000         0.000         0.000         0.000         0.000
  

  Analysis begun on:  Tue Dec 17 17:13:01 2019
  Analysis ended on:  Tue Dec 17 17:13:01 2019
  Total elapsed time: < 1 sec