
  EPA STORM WATER MANAGEMENT MODEL - VERSION 5.1 (Build 5.2.0.dev1)
  --------------------------------------------------------------

  
  *********************************************************
  NOTE: The summary statistics displayed in this report are
  based on results found at every computational time step,  
  not just on results from each reporting time step.
  *********************************************************
  
  ****************
  Analysis Options
  ****************
  Flow Units ............... MLD
  Process Models:
    Rainfall/Runoff ........ YES
    RDII ................... NO
    Snowmelt ............... NO
    Groundwater ............ NO
    Flow Routing ........... YES
    Ponding Allowed ........ NO
    Water Quality .......... YES
  Infiltration Method ...... GREEN_AMPT
  Flow Routing Method ...... DYNWAVE
  Starting Date ............ 08/28/2015 08:00:00
  Ending Date .............. 08/28/2015 12:00:00
  Antecedent Dry Days ...... 4.0
  Report Time Step ......... 00:01:00
  Wet Time Step ............ 00:01:00
  Dry Time Step ............ 00:01:00
  Routing Time Step ........ 5.00 sec
  Variable Time Step ....... YES
  Maximum Trials ........... 8
  Number of Threads ........ 1
  Head Tolerance ........... 0.001500 m
  
  
  **************************        Volume         Depth
  Runoff Quantity Continuity     hectare-m            mm
  **************************     ---------       -------
  Total Precipitation ......         7.260        25.740
  Evaporation Loss .........         0.000         0.000
  Infiltration Loss ........         2.918        10.344
  Surface Runoff ...........         2.138         7.581
  Final Storage ............         2.208         7.829
  Continuity Error (%) .....        -0.057
  
  
  **************************           COD         NH3-N            TN            TP            SS
  Runoff Quality Continuity             kg            kg            kg            kg            kg
  **************************    ----------    ----------    ----------    ----------    ----------
  Initial Buildup ..........     13074.240         0.000         0.000         0.000         0.000
  Surface Buildup ..........       106.707         0.000         0.000         0.000         0.000
  Wet Deposition ...........         0.000         0.000         0.000         0.000         0.000
  Sweeping Removal .........         0.000         0.000         0.000         0.000         0.000
  Infiltration Loss ........       267.073         0.000         0.000         0.000         0.000
  BMP Removal ..............         0.000         0.000         0.000         0.000         0.000
  Surface Runoff ...........      4650.801         0.000         0.000         0.000         0.000
  Remaining Buildup ........      8259.901         0.000         0.000         0.000         0.000
  Continuity Error (%) .....         0.024         0.000         0.000         0.000         0.000
  
  
  **************************        Volume        Volume
  Flow Routing Continuity        hectare-m      10^6 ltr
  **************************     ---------     ---------
  Dry Weather Inflow .......         0.000         0.000
  Wet Weather Inflow .......         2.132        21.325
  Groundwater Inflow .......         0.000         0.000
  RDII Inflow ..............         0.000         0.000
  External Inflow ..........         0.561         5.611
  External Outflow .........         1.267        12.671
  Flooding Loss ............         1.303        13.026
  Evaporation Loss .........         0.000         0.000
  Exfiltration Loss ........         0.000         0.000
  Initial Stored Volume ....         0.000         0.000
  Final Stored Volume ......         0.125         1.253
  Continuity Error (%) .....        -0.055
  
  
  **************************           COD         NH3-N            TN            TP            SS
  Quality Routing Continuity            kg            kg            kg            kg            kg
  **************************    ----------    ----------    ----------    ----------    ----------
  Dry Weather Inflow .......         0.000         0.000         0.000         0.000         0.000
  Wet Weather Inflow .......      4643.666         0.000         0.000         0.000         0.000
  Groundwater Inflow .......         0.000         0.000         0.000         0.000         0.000
  RDII Inflow ..............         0.000         0.000         0.000         0.000         0.000
  External Inflow ..........       937.010         0.000         0.000         0.000         0.000
  External Outflow .........      2611.439         0.000         0.000         0.000         0.000
  Flooding Loss ............      2802.457         0.000         0.000         0.000         0.000
  Exfiltration Loss ........         0.000         0.000         0.000         0.000         0.000
  Mass Reacted .............         0.000         0.000         0.000         0.000         0.000
  Initial Stored Mass ......         0.000         0.000         0.000         0.000         0.000
  Final Stored Mass ........       168.651         0.000         0.000         0.000         0.000
  Continuity Error (%) .....        -0.034         0.000         0.000         0.000         0.000
  
  
  *************************
  Highest Continuity Errors
  *************************
  Node WS02003099 (1.08%)
  
  
  ***************************
  Time-Step Critical Elements
  ***************************
  Link WSL2448 (38.26%)
  Link WSL1477 (34.65%)
  Link WSL1516 (10.37%)
  
  
  ********************************
  Highest Flow Instability Indexes
  ********************************
  Link WSL1477 (83)
  Link WSL1516 (79)
  Link WSL1515 (27)
  Link WSL2867 (20)
  Link WSL1475 (19)
  
  
  *************************
  Routing Time Step Summary
  *************************
  Minimum Time Step           :     0.50 sec
  Average Time Step           :     2.55 sec
  Maximum Time Step           :     5.00 sec
  Percent in Steady State     :    -0.00
  Average Iterations per Step :     3.28
  Percent Not Converging      :    11.60
  
  
  ***************************
  Subcatchment Runoff Summary
  ***************************
  
  --------------------------------------------------------------------------------------------------------
                            Total      Total      Total      Total      Total       Total     Peak  Runoff
                           Precip      Runon       Evap      Infil     Runoff      Runoff   Runoff   Coeff
  Subcatchment                 mm         mm         mm         mm         mm    10^6 ltr      MLD
  --------------------------------------------------------------------------------------------------------
  1                         25.74      36.83       0.00      11.28      33.98        0.41     7.38   0.543
  2                         25.74       0.00       0.00       8.89       9.90        0.33     6.80   0.385
  3                         25.74       0.00       0.00       8.97       9.31        0.47     9.64   0.362
  4                         25.74       0.00       0.00       8.84      10.25        0.27     5.58   0.398
  5                         25.74      24.27       0.00      10.86      25.39        0.43     8.03   0.508
  6                         25.74       0.00       0.00       8.97       9.35        0.46     9.38   0.363
  7                         25.74       0.00       0.00      11.07       8.01       12.81   235.63   0.311
  8                         25.74       0.00       0.00       8.94       9.56        0.41     8.25   0.372
  9                         25.74       9.46       0.00       9.90      14.31        0.54    10.24   0.407
  17                        25.74       0.00       0.00       8.91       9.77        0.36     7.30   0.380
  18                        25.74       0.00       0.00       8.94       9.53        0.41     8.41   0.370
  28                        25.74      33.82       0.00      11.51      28.29        0.74    13.14   0.475
  29                        25.74      14.31       0.00      10.04      17.51        0.42     7.60   0.437
  30                        25.74      37.39       0.00      11.39      37.25        0.35     6.58   0.590
  31                        25.74       0.00       0.00       8.90       9.82        0.35     7.10   0.382
  33                        25.74       0.00       0.00       8.55      12.11        0.11     2.20   0.471
  34                        25.74      21.31       0.00      10.73      22.80        0.47     8.76   0.485
  35                        25.74       0.00       0.00       8.87      10.06        0.30     6.22   0.391
  36                        25.74      20.41       0.00      10.95      18.39        1.09    19.68   0.399
  39                        25.74       0.00       0.00       8.90       9.88        0.34     6.87   0.384
  40                        25.74       5.32       0.00       9.50      12.19        0.48     9.25   0.392
  41                        25.74       0.00       0.00       8.77      10.75        0.21     4.28   0.418
  42                        25.74       0.00       0.00       8.81      10.50        0.24     4.90   0.408
  43                        25.74       0.00       0.00       8.25      13.68        0.05     1.06   0.532
  44                        25.74     305.04       0.00      17.57     271.36        1.00    19.01   0.820
  45                        25.74       0.00       0.00       8.60      11.82        0.12     2.53   0.459
  46                        25.74      17.22       0.00      10.36      19.98        0.43     7.87   0.465
  47                        25.74       0.00       0.00       8.62      11.69        0.13     2.69   0.454
  48                        25.74       8.19       0.00       9.52      15.70        0.25     4.78   0.463
  55                        25.74      12.29       0.00       9.62      20.01        0.17     3.19   0.526
  56                        25.74      18.87       0.00      10.49      20.93        0.45     8.24   0.469
  57                        25.74       0.00       0.00       8.97       9.33        0.47     9.48   0.363
  59                        25.74       0.00       0.00       8.53      12.17        0.10     2.14   0.473
  60                        25.74      26.60       0.00      10.36      31.87        0.17     3.20   0.609
  61                        25.74       0.00       0.00       9.15       7.76        1.40    27.95   0.301
  62                        25.74       0.00       0.00       9.16       7.70        1.46    29.26   0.299
  64                        25.74       0.00       0.00       8.64      11.55        0.14     2.87   0.449
  
  
  ****************************
  Subcatchment Washoff Summary
  ****************************
  
  ------------------------------------------------------------------------------------------
                                 COD         NH3-N            TN            TP            SS
  Subcatchment                    kg            kg            kg            kg            kg
  ------------------------------------------------------------------------------------------
  1                           77.752         0.000         0.000         0.000         0.000
  2                            0.000         0.000         0.000         0.000         0.000
  3                            0.000         0.000         0.000         0.000         0.000
  4                           63.160         0.000         0.000         0.000         0.000
  5                          125.178         0.000         0.000         0.000         0.000
  6                          103.408         0.000         0.000         0.000         0.000
  7                         2691.741         0.000         0.000         0.000         0.000
  8                           91.585         0.000         0.000         0.000         0.000
  9                          159.882         0.000         0.000         0.000         0.000
  17                          81.647         0.000         0.000         0.000         0.000
  18                          93.299         0.000         0.000         0.000         0.000
  28                         253.662         0.000         0.000         0.000         0.000
  29                         133.933         0.000         0.000         0.000         0.000
  30                          92.789         0.000         0.000         0.000         0.000
  31                          79.514         0.000         0.000         0.000         0.000
  33                          25.542         0.000         0.000         0.000         0.000
  34                         141.961         0.000         0.000         0.000         0.000
  35                          70.083         0.000         0.000         0.000         0.000
  36                         368.588         0.000         0.000         0.000         0.000
  39                          77.006         0.000         0.000         0.000         0.000
  40                         131.074         0.000         0.000         0.000         0.000
  41                          49.041         0.000         0.000         0.000         0.000
  42                          55.829         0.000         0.000         0.000         0.000
  43                          12.155         0.000         0.000         0.000         0.000
  44                         344.897         0.000         0.000         0.000         0.000
  45                          29.344         0.000         0.000         0.000         0.000
  46                         137.137         0.000         0.000         0.000         0.000
  47                          31.196         0.000         0.000         0.000         0.000
  48                          72.329         0.000         0.000         0.000         0.000
  55                          48.594         0.000         0.000         0.000         0.000
  56                         139.885         0.000         0.000         0.000         0.000
  57                         104.405         0.000         0.000         0.000         0.000
  59                          24.813         0.000         0.000         0.000         0.000
  60                          45.586         0.000         0.000         0.000         0.000
  61                         287.069         0.000         0.000         0.000         0.000
  62                         299.467         0.000         0.000         0.000         0.000
  64                          33.245         0.000         0.000         0.000         0.000
  ------------------------------------------------------------------------------------------
  System                    6576.801         0.000         0.000         0.000         0.000
  
  
  ******************
  Node Depth Summary
  ******************
  
  ---------------------------------------------------------------------------------
                                 Average  Maximum  Maximum  Time of Max    Reported
                                   Depth    Depth      HGL   Occurrence   Max Depth
  Node                 Type       Meters   Meters   Meters  days hr:min      Meters
  ---------------------------------------------------------------------------------
  WS01000070           JUNCTION     0.00     0.00     0.00     0  00:00        0.00
  WS01000323           JUNCTION     0.00     0.00     0.00     0  00:00        0.00
  WS01000533           JUNCTION     0.00     0.00     6.86     0  00:00        0.00
  WS01005172           JUNCTION     0.00     0.00     0.00     0  00:00        0.00
  WS01005181           JUNCTION     0.00     0.00     0.00     0  00:00        0.00
  WS01009841           JUNCTION     0.00     0.00     0.00     0  00:00        0.00
  WS02000078           JUNCTION     0.00     0.00     0.00     0  00:00        0.00
  WS02000112           JUNCTION     0.00     0.00     0.00     0  00:00        0.00
  WS02000136           JUNCTION     0.00     0.00     0.00     0  00:00        0.00
  WS02001211           JUNCTION     0.47     0.61     5.45     0  03:04        0.61
  WS02001212           JUNCTION     0.43     0.63     5.43     0  03:18        0.62
  WS02001213           JUNCTION     0.53     0.73     5.43     0  03:07        0.73
  WS02003059           JUNCTION     0.52     0.79     5.44     0  03:02        0.77
  WS02003060           JUNCTION     0.59     0.87     5.42     0  03:02        0.87
  WS02003066           JUNCTION     0.26     0.47     5.77     0  03:05        0.45
  WS02003067           JUNCTION     0.44     0.77     6.09     0  03:03        0.77
  WS02003071           JUNCTION     0.64     0.95     5.35     0  03:09        0.94
  WS02003072           JUNCTION     0.55     0.89     5.26     0  03:16        0.89
  WS02003073           JUNCTION     0.63     1.05     5.29     0  03:15        0.98
  WS02003076           JUNCTION     0.57     0.97     5.20     0  03:16        0.92
  WS02003077           JUNCTION     0.10     0.27     5.28     0  03:17        0.26
  WS02003078           JUNCTION     0.06     0.11     7.01     0  02:53        0.10
  WS02003079           JUNCTION     0.20     0.34     7.25     0  02:53        0.34
  WS02003093           JUNCTION     0.07     0.16     7.50     0  02:51        0.16
  WS02003094           JUNCTION     0.17     0.28     7.50     0  02:52        0.28
  WS02003098           JUNCTION     0.12     0.23     7.40     0  02:52        0.23
  WS02003099           JUNCTION     0.22     0.37     7.41     0  02:53        0.37
  WS02003102           JUNCTION     0.20     0.35     7.38     0  02:52        0.35
  WS02003103           JUNCTION     0.22     0.38     7.35     0  02:52        0.38
  WS02003104           JUNCTION     0.22     0.37     7.33     0  02:52        0.37
  WS02003106           JUNCTION     0.22     0.36     7.29     0  02:53        0.36
  WS02004050           JUNCTION     0.39     0.57     4.79     0  03:10        0.57
  WS02004053           JUNCTION     0.00     0.00     0.00     0  00:00        0.00
  WS02004136           JUNCTION     0.17     0.18     6.91     0  01:17        0.18
  WS02004139           JUNCTION     0.38     0.49     5.45     0  03:09        0.49
  WS02004401           JUNCTION     0.46     0.79     6.79     0  03:02        0.78
  WS02004402           JUNCTION     0.47     0.80     6.76     0  03:02        0.80
  WS02004403           JUNCTION     0.46     0.81     6.74     0  03:02        0.81
  WS02004404           JUNCTION     0.54     0.88     6.73     0  03:02        0.88
  WS02004405           JUNCTION     0.54     0.88     6.72     0  03:01        0.88
  WS02004406           JUNCTION     0.52     0.85     6.68     0  03:01        0.85
  WS02004407           JUNCTION     0.49     0.81     6.61     0  03:01        0.81
  WS02004409           JUNCTION     0.48     0.78     6.55     0  03:01        0.78
  WS02004410           JUNCTION     0.46     0.75     6.47     0  03:02        0.74
  WS02004411           JUNCTION     0.43     0.70     6.38     0  03:02        0.70
  WS02004412           JUNCTION     0.38     0.63     6.27     0  03:03        0.62
  WS02004413           JUNCTION     0.40     0.67     6.14     0  03:03        0.67
  WS02004997           JUNCTION     5.71     6.69     8.30     0  02:00        6.68
  WS02005192           JUNCTION     0.20     0.33     8.20     0  02:49        0.33
  WS02005193           JUNCTION     0.23     0.35     8.17     0  02:50        0.35
  WS02005196           JUNCTION     0.22     0.34     8.19     0  02:49        0.34
  WS02006109           JUNCTION     0.48     0.76     7.38     0  03:01        0.76
  WS02006110           JUNCTION     0.44     0.68     7.28     0  03:01        0.68
  WS02006111           JUNCTION     0.25     0.40     6.98     0  03:00        0.40
  WS02006112           JUNCTION     0.47     0.77     6.89     0  03:01        0.77
  WS02006113           JUNCTION     0.38     0.57     7.16     0  03:01        0.57
  WS02006115           JUNCTION     0.43     0.74     6.84     0  03:01        0.74
  WS02006116           JUNCTION     0.46     0.78     6.82     0  03:02        0.78
  WS02006183           JUNCTION     0.00     0.00     0.00     0  00:00        0.00
  WS02006228           JUNCTION     0.50     0.80     7.45     0  03:01        0.80
  WS02006229           JUNCTION     0.47     0.78     7.47     0  03:01        0.78
  WS02006230           JUNCTION     0.46     0.80     7.55     0  03:01        0.80
  WS02006231           JUNCTION     0.37     0.72     7.62     0  03:01        0.72
  WS02006232           JUNCTION     0.33     0.64     7.67     0  03:01        0.64
  WS02006234           JUNCTION     0.30     0.54     7.70     0  03:01        0.54
  WS02006235           JUNCTION     0.35     0.58     7.75     0  03:01        0.58
  WS02006238           JUNCTION     0.35     0.58     7.76     0  03:01        0.58
  WS02006239           JUNCTION     0.37     0.61     7.82     0  03:02        0.61
  WS02006242           JUNCTION     0.40     0.62     7.92     0  03:01        0.62
  WS02006240           JUNCTION     0.34     0.56     7.85     0  03:02        0.56
  WS02006243           JUNCTION     0.33     0.54     7.96     0  03:01        0.54
  WS02006245           JUNCTION     0.33     0.53     8.02     0  03:01        0.53
  WS02006247           JUNCTION     0.35     0.56     8.07     0  03:01        0.56
  WS02006248           JUNCTION     0.30     0.49     8.08     0  03:00        0.49
  WS02006249           JUNCTION     0.33     0.51     8.11     0  02:59        0.51
  WS02006251           JUNCTION     0.31     0.49     8.16     0  02:54        0.49
  WS02006253           JUNCTION     0.23     0.37     8.17     0  02:51        0.37
  WS02618401           JUNCTION     0.00     0.00     0.00     0  00:00        0.00
  WS8802               JUNCTION     0.00     0.00     4.38     0  00:00        0.00
  WSA1649              JUNCTION     0.00     0.00     0.00     0  00:00        0.00
  WSF200               JUNCTION     0.25     0.47     5.57     0  02:54        0.45
  XR-Inflow            JUNCTION     5.56     6.55     8.36     0  01:57        6.55
  WS02004114           JUNCTION     5.68     6.65     8.25     0  02:00        6.65
  outfall-2            OUTFALL      0.00     0.00     7.00     0  00:00        0.00
  outfall-5            OUTFALL      0.00     0.00     7.67     0  00:00        0.00
  outfall-14           OUTFALL      0.00     0.00     7.66     0  00:00        0.00
  outfall-16           OUTFALL      0.00     0.00     8.39     0  00:00        0.00
  12                   OUTFALL      0.39     0.56     0.56     0  03:10        0.56
  XR-storage           STORAGE      6.76     7.72     8.22     0  01:41        7.72
  CC-storage           STORAGE      4.07     5.63     8.81     0  02:42        5.63
  JK-storage           STORAGE      4.10     4.80     7.80     0  01:41        4.80
  
  
  *******************
  Node Inflow Summary
  *******************
  
  -------------------------------------------------------------------------------------------------
                                  Maximum  Maximum                  Lateral       Total        Flow
                                  Lateral    Total  Time of Max      Inflow      Inflow     Balance
                                   Inflow   Inflow   Occurrence      Volume      Volume       Error
  Node                 Type           MLD      MLD  days hr:min    10^6 ltr    10^6 ltr     Percent
  -------------------------------------------------------------------------------------------------
  WS01000070           JUNCTION      0.00     0.00     0  00:00           0           0       0.000 ltr
  WS01000323           JUNCTION      0.00     0.00     0  00:00           0           0       0.000 ltr
  WS01000533           JUNCTION      0.00     0.00     0  00:00           0           0       0.000 ltr
  WS01005172           JUNCTION      0.00     0.00     0  00:00           0           0       0.000 ltr
  WS01005181           JUNCTION      0.00     0.00     0  00:00           0           0       0.000 ltr
  WS01009841           JUNCTION      0.00     0.00     0  00:00           0           0       0.000 ltr
  WS02000078           JUNCTION      0.00     0.00     0  00:00           0           0       0.000 ltr
  WS02000112           JUNCTION      0.00     0.00     0  00:00           0           0       0.000 ltr
  WS02000136           JUNCTION      0.00     0.00     0  00:00           0           0       0.000 ltr
  WS02001211           JUNCTION      0.25    36.87     0  03:06      0.0407        4.89       0.556
  WS02001212           JUNCTION      0.21    39.56     0  03:21      0.0346         4.9       0.320
  WS02001213           JUNCTION      0.30    48.07     0  03:22      0.0489        4.94       0.443
  WS02003059           JUNCTION      0.23    42.41     0  03:23      0.0378        4.95       0.578
  WS02003060           JUNCTION      0.16   156.20     0  03:08      0.0252        11.6       0.383
  WS02003066           JUNCTION      0.08   147.78     0  03:03      0.0122        6.64       0.202
  WS02003067           JUNCTION      0.26   112.13     0  03:00      0.0395        6.64       0.157
  WS02003071           JUNCTION      0.35   147.02     0  03:00      0.0538        11.6       0.397
  WS02003072           JUNCTION      0.24   148.05     0  03:06      0.0382        11.6       0.250
  WS02003073           JUNCTION      0.07   175.87     0  03:01     0.00978        12.5       0.213
  WS02003076           JUNCTION      0.72   182.36     0  03:05        0.12        12.6       0.133
  WS02003077           JUNCTION      0.04    19.90     0  02:53      0.0059       0.972       0.136
  WS02003078           JUNCTION      0.03    23.47     0  02:53     0.00419       0.966      -0.059
  WS02003079           JUNCTION      0.04    18.49     0  02:53     0.00561       0.964       0.262
  WS02003093           JUNCTION      0.02     0.15     0  02:38     0.00306     0.00418       7.889
  WS02003094           JUNCTION     10.30    10.30     0  02:51       0.549       0.553       0.812
  WS02003098           JUNCTION      0.02    10.31     0  02:52     0.00293       0.551       0.538
  WS02003099           JUNCTION      0.07    10.38     0  02:53      0.0109       0.559       1.089
  WS02003102           JUNCTION      8.27    18.39     0  02:51       0.409       0.962       0.556
  WS02003103           JUNCTION      0.02    18.39     0  02:51     0.00239       0.959       0.384
  WS02003104           JUNCTION      0.02    18.39     0  02:52     0.00302       0.958       0.325
  WS02003106           JUNCTION      0.05    18.43     0  02:52     0.00727       0.962       0.387
  WS02004050           JUNCTION      0.72   216.93     0  03:16       0.119        12.7       0.587
  WS02004053           JUNCTION      0.00     0.00     0  00:00           0           0       0.000 ltr
  WS02004136           JUNCTION      0.44    32.92     0  01:15      0.0703        4.81       0.067
  WS02004139           JUNCTION      0.38    33.57     0  01:16      0.0619        4.87       0.376
  WS02004401           JUNCTION      0.05    73.03     0  03:01     0.00897        4.59       0.323
  WS02004402           JUNCTION      0.22    73.13     0  03:01      0.0335        4.61       0.294
  WS02004403           JUNCTION      0.23    73.48     0  03:03      0.0349        4.63       0.255
  WS02004404           JUNCTION      0.24    73.85     0  03:03      0.0365        4.65       0.212
  WS02004405           JUNCTION      5.64    78.48     0  03:00       0.284        4.93       0.298
  WS02004406           JUNCTION     13.26    91.66     0  03:00       0.763        5.68       0.400
  WS02004407           JUNCTION      0.11    91.62     0  02:59      0.0171        5.67       0.356
  WS02004409           JUNCTION      8.22    99.70     0  02:59       0.465        6.11       0.288
  WS02004410           JUNCTION      0.15   100.23     0  03:01      0.0226        6.12       0.274
  WS02004411           JUNCTION      0.25   100.74     0  03:01      0.0379        6.14       0.230
  WS02004412           JUNCTION      9.47   109.56     0  03:00       0.476         6.6       0.176
  WS02004413           JUNCTION      0.11   110.12     0  03:00      0.0172        6.61       0.168
  WS02004997           JUNCTION      0.42    63.57     0  03:00      0.0693        7.73       0.504
  WS02005192           JUNCTION      9.58     9.58     0  02:46       0.483       0.484       0.150
  WS02005193           JUNCTION      0.09     9.74     0  02:46      0.0146       0.527       0.269
  WS02005196           JUNCTION      0.12     9.68     0  02:46       0.019       0.506       0.300
  WS02006109           JUNCTION      0.08    63.53     0  03:01      0.0135        4.05       0.431
  WS02006110           JUNCTION      0.08    63.61     0  03:02      0.0132        4.05       0.392
  WS02006111           JUNCTION      0.24    72.57     0  03:01      0.0366        4.56       0.152
  WS02006112           JUNCTION      0.18    72.73     0  03:01      0.0273        4.58       0.345
  WS02006113           JUNCTION      9.79    72.37     0  03:01         0.5        4.53       0.267
  WS02006115           JUNCTION      0.08    72.77     0  03:01      0.0134        4.57       0.358
  WS02006116           JUNCTION      0.24    73.05     0  03:01       0.036        4.59       0.338
  WS02006183           JUNCTION      0.00     0.00     0  00:00           0           0       0.000 ltr
  WS02006228           JUNCTION     19.16    63.45     0  03:01        1.03        4.05       0.331
  WS02006229           JUNCTION      0.13    44.30     0  03:01        0.02        3.03       0.380
  WS02006230           JUNCTION      0.07    44.22     0  02:59      0.0116        3.03       0.414
  WS02006231           JUNCTION      0.13    44.15     0  02:59      0.0205        3.02       0.265
  WS02006232           JUNCTION      6.88    44.10     0  02:58       0.347        3.01       0.246
  WS02006234           JUNCTION      0.14    38.14     0  03:03      0.0216        2.67       0.245
  WS02006235           JUNCTION      0.14    37.95     0  03:03      0.0223        2.65       0.154
  WS02006238           JUNCTION      0.15    37.77     0  03:02      0.0235        2.64       0.208
  WS02006239           JUNCTION      0.11    37.65     0  03:00      0.0174        2.62       0.336
  WS02006242           JUNCTION      0.08    37.61     0  02:55      0.0129        2.61       0.376
  WS02006240           JUNCTION      0.06    37.61     0  02:58     0.00992        2.61       0.305
  WS02006243           JUNCTION      0.17    37.61     0  02:53      0.0269         2.6       0.238
  WS02006245           JUNCTION      0.07    37.50     0  02:54      0.0113        2.58       0.188
  WS02006247           JUNCTION      7.52    37.46     0  02:54       0.435        2.58       0.182
  WS02006248           JUNCTION      0.12    30.50     0  02:48      0.0192        2.14       0.129
  WS02006249           JUNCTION      0.19    30.44     0  02:48      0.0286        2.13       0.199
  WS02006251           JUNCTION      3.25    30.32     0  02:48       0.176         2.1       0.147
  WS02006253           JUNCTION      0.11    27.10     0  02:47      0.0173        1.94       0.036
  WS02618401           JUNCTION      0.00     0.00     0  00:00           0           0       0.000 ltr
  WS8802               JUNCTION      0.00     0.00     0  00:00           0           0       0.000 ltr
  WSA1649              JUNCTION      0.00     0.00     0  00:00           0           0       0.000 ltr
  WSF200               JUNCTION      0.14   125.31     0  03:05      0.0216        6.65      -0.019
  XR-Inflow            JUNCTION    253.67   253.67     0  03:00        16.1        16.1       0.149
  WS02004114           JUNCTION      0.57    64.10     0  02:56      0.0916        7.78       0.308
  outfall-2            OUTFALL       0.00     0.00     0  00:00           0           0       0.000 ltr
  outfall-5            OUTFALL       0.00     0.00     0  00:00           0           0       0.000 ltr
  outfall-14           OUTFALL       0.00     0.00     0  00:00           0           0       0.000 ltr
  outfall-16           OUTFALL       0.00     0.00     0  00:00           0           0       0.000 ltr
  12                   OUTFALL       0.00   168.70     0  03:10           0        12.7       0.000
  XR-storage           STORAGE       0.00    64.10     0  02:56           0        7.76       0.604
  CC-storage           STORAGE      29.57    29.57     0  02:49        1.68        1.68      -0.004
  JK-storage           STORAGE      30.26    30.26     0  02:49        1.64        1.64       0.009
  
  
  **********************
  Node Surcharge Summary
  **********************
  
  Surcharging occurs when water rises above the top of the highest conduit.
  ---------------------------------------------------------------------
                                               Max. Height   Min. Depth
                                   Hours       Above Crown    Below Rim
  Node                 Type      Surcharged         Meters       Meters
  ---------------------------------------------------------------------
  WS01000070           JUNCTION        4.00          0.000        0.000
  WS01000323           JUNCTION        4.00          0.000        0.000
  WS01000533           JUNCTION        4.00          0.000        2.147
  WS01005172           JUNCTION        4.00          0.000        0.000
  WS01005181           JUNCTION        4.00          0.000        0.000
  WS01009841           JUNCTION        4.00          0.000        0.000
  WS02000078           JUNCTION        4.00          0.000        0.000
  WS02000112           JUNCTION        4.00          0.000        0.000
  WS02000136           JUNCTION        4.00          0.000        0.000
  WS02004053           JUNCTION        4.00          0.000        0.000
  WS02004997           JUNCTION        3.88          5.788        0.212
  WS02006183           JUNCTION        4.00          0.000        0.000
  WS02006228           JUNCTION        0.09          0.004        2.227
  WS02006231           JUNCTION        0.21          0.022        1.521
  WS02618401           JUNCTION        4.00          0.000        0.000
  WS8802               JUNCTION        4.00          0.000        4.942
  WSA1649              JUNCTION        4.00          0.000        0.000
  XR-Inflow            JUNCTION        3.87          5.650        0.000
  WS02004114           JUNCTION        3.88          5.751        0.764
  
  
  *********************
  Node Flooding Summary
  *********************
  
  Flooding refers to all water that overflows a node, whether it ponds or not.
  --------------------------------------------------------------------------
                                                             Total   Maximum
                                 Maximum   Time of Max       Flood    Ponded
                        Hours       Rate    Occurrence      Volume     Depth
  Node                 Flooded       MLD   days hr:min    10^6 ltr    Meters
  --------------------------------------------------------------------------
  XR-Inflow               2.04    190.49      0  03:00       8.435     0.000
  XR-storage              2.30     31.62      0  02:56       2.904     0.000
  CC-storage              0.51     12.29      0  02:49       0.187     0.000
  JK-storage              2.32     30.26      0  02:49       1.501     0.000
  
  
  **********************
  Storage Volume Summary
  **********************
  
  --------------------------------------------------------------------------------------------------
                         Average     Avg  Evap Exfil       Maximum     Max    Time of Max    Maximum
                          Volume    Pcnt  Pcnt  Pcnt        Volume    Pcnt     Occurrence    Outflow
  Storage Unit           1000 m3    Full  Loss  Loss       1000 m3    Full    days hr:min        MLD
  --------------------------------------------------------------------------------------------------
  XR-storage               0.055      88     0     0         0.063     100       0  01:41      32.48
  CC-storage               0.115      72     0     0         0.159     100       0  02:42      17.28
  JK-storage               0.116      85     0     0         0.136     100       0  01:41       0.00
  
  
  ***********************
  Outfall Loading Summary
  ***********************
  
  ---------------------------------------------------------------------------------------------------------------------------------
                         Flow       Avg       Max       Total         Total         Total         Total         Total         Total
                         Freq      Flow      Flow      Volume           COD         NH3-N            TN            TP            SS
  Outfall Node           Pcnt       MLD       MLD    10^6 ltr            kg            kg            kg            kg            kg
  ---------------------------------------------------------------------------------------------------------------------------------
  outfall-2              0.00      0.00      0.00       0.000         0.000         0.000         0.000         0.000         0.000
  outfall-5              0.00      0.00      0.00       0.000         0.000         0.000         0.000         0.000         0.000
  outfall-14             0.00      0.00      0.00       0.000         0.000         0.000         0.000         0.000         0.000
  outfall-16             0.00      0.00      0.00       0.000         0.000         0.000         0.000         0.000         0.000
  12                    99.98     94.82    168.70      12.671      2611.700         0.000         0.000         0.000         0.000
  ---------------------------------------------------------------------------------------------------------------------------------
  System                20.00     94.82    168.70      12.671      2611.700         0.000         0.000         0.000         0.000
  
  
  ********************
  Link Flow Summary
  ********************
  
  -----------------------------------------------------------------------------
                                 Maximum  Time of Max   Maximum    Max/    Max/
                                  |Flow|   Occurrence   |Veloc|    Full    Full
  Link                 Type          MLD  days hr:min     m/sec    Flow   Depth
  -----------------------------------------------------------------------------
  WSL49                CONDUIT    181.64     0  03:05      2.68    2.26    0.82
  WSL1465              CONDUIT     44.36     0  03:23      1.66    0.40    0.81
  WSL1472              CONDUIT    147.83     0  03:06      2.05    1.69    0.75
  WSL1475              CONDUIT    216.21     0  03:16      3.41    2.31    0.52
  WSL1476              CONDUIT     25.77     0  03:15      0.91    0.13    0.67
  WSL1477              CONDUIT     23.45     0  02:53      2.83    0.93    0.37
  WSL1490              CONDUIT     39.36     0  03:21      1.39    0.64    0.61
  WSL1491              CONDUIT     47.79     0  03:22      1.45    0.28    0.67
  WSL1492              CONDUIT     42.19     0  03:23      1.39    0.65    0.74
  WSL1507              CONDUIT      0.16     0  03:02      0.11    0.00    0.27
  WSL1508              CONDUIT     10.30     0  02:52      0.91    0.29    0.32
  WSL1512              CONDUIT     10.32     0  02:53      0.62    0.07    0.30
  WSL1513              CONDUIT     10.40     0  02:56      0.57    0.61    0.45
  WSL1515              CONDUIT    147.71     0  03:03      3.12    1.44    0.49
  WSL1516              CONDUIT     19.87     0  02:53      4.85    0.07    0.29
  WSL1518              CONDUIT     18.37     0  02:51      0.96    0.36    0.46
  WSL1519              CONDUIT     18.39     0  02:52      0.96    0.46    0.45
  WSL1521              CONDUIT     18.46     0  02:53      1.01    0.53    0.44
  WSL1543              CONDUIT     18.38     0  02:52      0.93    0.57    0.46
  WSL1961              CONDUIT     33.19     0  01:16      3.07    0.07    0.33
  WSL1964              CONDUIT     36.63     0  03:06      1.38    0.20    0.45
  WSL2010              CONDUIT     73.30     0  03:03      1.27    0.94    0.80
  WSL2011              CONDUIT     73.65     0  03:03      1.22    0.47    0.84
  WSL2012              CONDUIT     73.93     0  03:03      1.18    1.13    0.88
  WSL2013              CONDUIT     78.53     0  03:03      1.27    1.95    0.86
  WSL2014              CONDUIT     91.52     0  02:59      1.53    1.46    0.83
  WSL2015              CONDUIT     91.75     0  03:02      1.60    1.23    0.79
  WSL2016              CONDUIT    100.10     0  03:01      1.82    1.15    0.76
  WSL2017              CONDUIT    100.54     0  03:01      1.95    1.22    0.72
  WSL2018              CONDUIT    110.03     0  03:00      2.50    0.66    0.65
  WSL2019              CONDUIT    111.92     0  03:00      2.41    0.66    0.72
  WSL2028              CONDUIT     72.95     0  03:01      1.27    0.78    0.79
  WSL2029              CONDUIT    101.00     0  03:00      2.18    1.28    0.66
  WSL2038              CONDUIT      9.57     0  02:46      0.69    0.48    0.56
  WSL2039              CONDUIT      9.72     0  02:47      1.35    0.50    0.60
  WSL2041              CONDUIT      9.66     0  02:46      0.84    0.47    0.58
  WSL2294              CONDUIT     63.54     0  03:02      1.55    2.13    0.90
  WSL2295              CONDUIT     63.72     0  03:02      1.76    2.86    0.78
  WSL2296              CONDUIT     72.58     0  03:01      2.12    0.41    0.74
  WSL2297              CONDUIT     72.69     0  03:01      1.34    1.39    0.76
  WSL2298              CONDUIT     72.38     0  03:01      2.61    3.33    0.61
  WSL2301              CONDUIT     72.85     0  03:01      1.33    0.67    0.76
  WSL2302              CONDUIT     72.98     0  03:01      1.29    0.90    0.78
  WSL2441              CONDUIT     63.45     0  03:01      1.47    1.62    0.97
  WSL2442              CONDUIT     44.19     0  03:01      1.33    1.13    1.00
  WSL2443              CONDUIT     44.15     0  02:59      1.44    0.69    1.00
  WSL2444              CONDUIT     44.04     0  03:00      1.71    0.70    0.96
  WSL2446              CONDUIT     38.35     0  03:04      1.66    0.66    0.84
  WSL2447              CONDUIT     38.02     0  03:03      1.54    1.96    0.80
  WSL2448              CONDUIT     37.83     0  03:03      1.42    1.06    0.83
  WSL2449              CONDUIT     37.64     0  03:02      1.36    1.31    0.85
  WSL2450              CONDUIT     37.55     0  03:00      1.35    0.78    0.83
  WSL2451              CONDUIT     37.55     0  02:58      1.31    2.45    0.85
  WSL2452              CONDUIT     37.53     0  02:55      1.32    0.72    0.83
  WSL2454              CONDUIT     37.45     0  02:53      1.46    0.87    0.77
  WSL2478              CONDUIT     37.43     0  02:54      1.39    1.32    0.77
  WSL2479              CONDUIT     30.46     0  02:49      1.24    0.58    0.75
  WSL2480              CONDUIT     30.39     0  02:48      1.27    1.41    0.71
  WSL2482              CONDUIT     30.28     0  02:48      1.23    0.79    0.72
  WSL2484              CONDUIT     27.08     0  02:47      1.81    0.38    0.61
  WSL2493              CONDUIT     44.32     0  03:01      1.06    0.75    0.99
  WSL2867              CONDUIT    125.20     0  03:05      4.18    0.26    0.37
  WSL2868              CONDUIT    118.29     0  03:00      2.24    0.22    0.54
  WSL348               CONDUIT     63.16     0  03:00      1.88    0.58    1.00
  WSL175               CONDUIT     63.56     0  03:00      2.29    2.14    1.00
  WSL1467              CONDUIT    146.73     0  03:00      1.95    0.78    0.74
  WSL1473              CONDUIT    157.70     0  03:01      2.21    0.65    0.79
  XRpipe               CONDUIT     64.10     0  02:56      2.54    0.16    1.00
  8                    CONDUIT      0.00     0  00:00      0.00    0.00    0.00
  19                   CONDUIT      0.00     0  00:00      0.00    0.00    0.00
  17                   CONDUIT      0.00     0  00:00      0.00    0.00    0.00
  4                    CONDUIT      0.00     0  00:00      0.00    0.00    0.00
  2                    CONDUIT    168.70     0  03:10      4.27    0.61    0.57
  XR-Pump-1            PUMP         8.12     0  00:08              1.00
  XR-Pump-3            PUMP         8.12     0  00:09              1.00
  XR-Pump-2            PUMP         8.12     0  00:09              1.00
  XR-Pump-4            PUMP         8.12     0  01:15              1.00
  CC-Pump-1            PUMP        17.28     0  01:30              1.00
  CC-Pump-2            PUMP         0.00     0  00:00              0.00
  JK-Pump-1            PUMP         0.00     0  00:00              0.00
  JK-Pump-2            PUMP         0.00     0  00:00              0.00
  
  
  ***************************
  Flow Classification Summary
  ***************************
  
  -------------------------------------------------------------------------------------
                      Adjusted    ---------- Fraction of Time in Flow Class ---------- 
                       /Actual         Up    Down  Sub   Sup   Up    Down  Norm  Inlet 
  Conduit               Length    Dry  Dry   Dry   Crit  Crit  Crit  Crit  Ltd   Ctrl  
  -------------------------------------------------------------------------------------
  WSL49                   1.00   0.00  0.00  0.00  0.99  0.01  0.00  0.00  0.00  0.00
  WSL1465                 1.00   0.00  0.00  0.00  1.00  0.00  0.00  0.00  0.10  0.00
  WSL1472                 1.00   0.00  0.00  0.00  1.00  0.00  0.00  0.00  0.00  0.00
  WSL1475                 1.00   0.00  0.00  0.00  0.18  0.82  0.00  0.00  0.01  0.00
  WSL1476                 1.00   0.00  0.00  0.00  1.00  0.00  0.00  0.00  0.98  0.00
  WSL1477                 1.00   0.00  0.00  0.00  0.00  1.00  0.00  0.00  0.45  0.00
  WSL1490                 1.00   0.00  0.00  0.00  1.00  0.00  0.00  0.00  0.01  0.00
  WSL1491                 1.00   0.00  0.00  0.00  1.00  0.00  0.00  0.00  0.04  0.00
  WSL1492                 1.00   0.00  0.00  0.00  1.00  0.00  0.00  0.00  0.00  0.00
  WSL1507                 1.00   0.00  0.00  0.00  1.00  0.00  0.00  0.00  0.44  0.00
  WSL1508                 1.00   0.00  0.00  0.00  1.00  0.00  0.00  0.00  0.00  0.00
  WSL1512                 1.00   0.00  0.00  0.00  1.00  0.00  0.00  0.00  0.82  0.00
  WSL1513                 1.00   0.00  0.00  0.00  1.00  0.00  0.00  0.00  0.00  0.00
  WSL1515                 1.00   0.00  0.00  0.00  0.12  0.88  0.00  0.00  0.05  0.00
  WSL1516                 1.00   0.00  0.00  0.00  0.00  1.00  0.00  0.00  1.00  0.00
  WSL1518                 1.00   0.00  0.00  0.00  1.00  0.00  0.00  0.00  0.40  0.00
  WSL1519                 1.00   0.00  0.00  0.00  1.00  0.00  0.00  0.00  0.32  0.00
  WSL1521                 1.00   0.00  0.00  0.00  1.00  0.00  0.00  0.00  0.02  0.00
  WSL1543                 1.00   0.00  0.00  0.00  1.00  0.00  0.00  0.00  0.02  0.00
  WSL1961                 1.00   0.00  0.00  0.00  0.01  0.99  0.00  0.00  0.98  0.00
  WSL1964                 1.00   0.00  0.00  0.00  1.00  0.00  0.00  0.00  0.05  0.00
  WSL2010                 1.00   0.00  0.00  0.00  1.00  0.00  0.00  0.00  0.01  0.00
  WSL2011                 1.00   0.00  0.00  0.00  1.00  0.00  0.00  0.00  0.27  0.00
  WSL2012                 1.00   0.00  0.00  0.00  1.00  0.00  0.00  0.00  0.00  0.00
  WSL2013                 1.00   0.00  0.00  0.00  1.00  0.00  0.00  0.00  0.00  0.00
  WSL2014                 1.00   0.00  0.00  0.00  1.00  0.00  0.00  0.00  0.00  0.00
  WSL2015                 1.00   0.00  0.00  0.00  1.00  0.00  0.00  0.00  0.02  0.00
  WSL2016                 1.00   0.00  0.00  0.00  1.00  0.00  0.00  0.00  0.01  0.00
  WSL2017                 1.00   0.00  0.00  0.00  1.00  0.00  0.00  0.00  0.04  0.00
  WSL2018                 1.00   0.00  0.00  0.00  0.04  0.96  0.00  0.00  0.07  0.00
  WSL2019                 1.00   0.00  0.00  0.00  0.70  0.30  0.00  0.00  0.11  0.00
  WSL2028                 1.00   0.00  0.00  0.00  1.00  0.00  0.00  0.00  0.06  0.00
  WSL2029                 1.00   0.00  0.00  0.00  0.77  0.23  0.00  0.00  0.00  0.00
  WSL2038                 1.00   0.00  0.00  0.00  1.00  0.00  0.00  0.00  0.02  0.00
  WSL2039                 1.00   0.00  0.00  0.00  0.91  0.09  0.00  0.00  0.01  0.00
  WSL2041                 1.00   0.00  0.00  0.00  1.00  0.00  0.00  0.00  0.29  0.00
  WSL2294                 1.00   0.00  0.00  0.00  1.00  0.00  0.00  0.00  0.00  0.00
  WSL2295                 1.00   0.00  0.00  0.00  1.00  0.00  0.00  0.00  0.00  0.00
  WSL2296                 1.00   0.00  0.00  0.00  0.47  0.53  0.00  0.00  0.52  0.00
  WSL2297                 1.00   0.00  0.00  0.00  1.00  0.00  0.00  0.00  0.00  0.00
  WSL2298                 1.00   0.00  0.00  0.00  0.05  0.95  0.00  0.00  0.00  0.00
  WSL2301                 1.00   0.00  0.00  0.00  1.00  0.00  0.00  0.00  0.09  0.00
  WSL2302                 1.00   0.00  0.00  0.00  1.00  0.00  0.00  0.00  0.02  0.00
  WSL2441                 1.00   0.00  0.00  0.00  1.00  0.00  0.00  0.00  0.00  0.00
  WSL2442                 1.00   0.00  0.00  0.00  1.00  0.00  0.00  0.00  0.20  0.00
  WSL2443                 1.00   0.00  0.00  0.00  1.00  0.00  0.00  0.00  0.40  0.00
  WSL2444                 1.00   0.00  0.00  0.00  0.54  0.46  0.00  0.00  0.25  0.00
  WSL2446                 1.00   0.00  0.00  0.00  0.63  0.37  0.00  0.00  0.08  0.00
  WSL2447                 1.00   0.00  0.00  0.00  1.00  0.00  0.00  0.00  0.00  0.00
  WSL2448                 1.00   0.00  0.00  0.00  1.00  0.00  0.00  0.00  0.01  0.00
  WSL2449                 1.00   0.00  0.00  0.00  1.00  0.00  0.00  0.00  0.03  0.00
  WSL2450                 1.00   0.00  0.00  0.00  1.00  0.00  0.00  0.00  0.38  0.00
  WSL2451                 1.00   0.00  0.00  0.00  1.00  0.00  0.00  0.00  0.00  0.00
  WSL2452                 1.00   0.00  0.00  0.00  1.00  0.00  0.00  0.00  0.43  0.00
  WSL2454                 1.00   0.00  0.00  0.00  1.00  0.00  0.00  0.00  0.06  0.00
  WSL2478                 1.00   0.00  0.00  0.00  1.00  0.00  0.00  0.00  0.00  0.00
  WSL2479                 1.00   0.00  0.00  0.00  1.00  0.00  0.00  0.00  0.42  0.00
  WSL2480                 1.00   0.00  0.00  0.00  1.00  0.00  0.00  0.00  0.00  0.00
  WSL2482                 1.00   0.00  0.00  0.00  1.00  0.00  0.00  0.00  0.44  0.00
  WSL2484                 1.00   0.00  0.00  0.00  0.99  0.01  0.00  0.00  0.49  0.00
  WSL2493                 1.00   0.00  0.00  0.00  1.00  0.00  0.00  0.00  0.05  0.00
  WSL2867                 1.00   0.00  0.00  0.00  0.00  1.00  0.00  0.00  0.18  0.00
  WSL2868                 1.00   0.00  0.00  0.00  0.97  0.03  0.00  0.00  0.65  0.00
  WSL348                  1.00   0.00  0.00  0.00  1.00  0.00  0.00  0.00  0.01  0.00
  WSL175                  1.00   0.00  0.00  0.00  1.00  0.00  0.00  0.00  0.00  0.00
  WSL1467                 1.00   0.00  0.00  0.00  1.00  0.00  0.00  0.00  0.06  0.00
  WSL1473                 1.00   0.00  0.00  0.00  1.00  0.00  0.00  0.00  0.05  0.00
  XRpipe                  1.00   0.00  0.00  0.00  1.00  0.00  0.00  0.00  0.01  0.00
  8                       1.00   1.00  0.00  0.00  0.00  0.00  0.00  0.00  0.00  0.00
  19                      1.00   1.00  0.00  0.00  0.00  0.00  0.00  0.00  0.00  0.00
  17                      1.00   1.00  0.00  0.00  0.00  0.00  0.00  0.00  0.00  0.00
  4                       1.00   1.00  0.00  0.00  0.00  0.00  0.00  0.00  0.00  0.00
  2                       1.00   0.00  0.00  0.00  0.00  1.00  0.00  0.00  0.18  0.00
  
  
  *************************
  Conduit Surcharge Summary
  *************************
  
  ----------------------------------------------------------------------------
                                                           Hours        Hours 
                         --------- Hours Full --------   Above Full   Capacity
  Conduit                Both Ends  Upstream  Dnstream   Normal Flow   Limited
  ----------------------------------------------------------------------------
  WSL49                       0.01      0.01      0.01      1.72         0.01
  WSL1472                     0.01      0.01      0.01      1.44         0.01
  WSL1475                     0.01      0.01      0.01      1.42         0.01
  WSL1476                     0.01      0.01      0.63      0.01         0.01
  WSL1515                     0.01      0.01      0.01      0.32         0.01
  WSL2012                     0.01      0.01      0.01      0.46         0.01
  WSL2013                     0.01      0.01      0.01      1.41         0.01
  WSL2014                     0.01      0.01      0.01      0.92         0.01
  WSL2015                     0.01      0.01      0.01      0.61         0.01
  WSL2016                     0.01      0.01      0.01      0.49         0.01
  WSL2017                     0.01      0.01      0.01      0.58         0.01
  WSL2029                     0.01      0.01      0.01      0.64         0.01
  WSL2294                     0.01      0.01      0.01      1.57         0.01
  WSL2295                     0.01      0.01      0.01      1.93         0.01
  WSL2297                     0.01      0.01      0.01      0.84         0.01
  WSL2298                     0.01      0.01      0.01      2.00         0.01
  WSL2441                     0.01      0.09      0.01      1.25         0.01
  WSL2442                     0.49      0.50      0.50      0.55         0.49
  WSL2443                     0.21      0.21      0.50      0.01         0.01
  WSL2444                     0.01      0.01      0.21      0.01         0.01
  WSL2447                     0.01      0.01      0.01      1.80         0.01
  WSL2448                     0.01      0.01      0.01      0.44         0.01
  WSL2449                     0.01      0.01      0.01      0.99         0.01
  WSL2451                     0.01      0.01      0.01      1.92         0.01
  WSL2478                     0.01      0.01      0.01      0.97         0.01
  WSL2480                     0.01      0.01      0.01      1.45         0.01
  WSL2493                     0.01      0.01      0.09      0.01         0.01
  WSL348                      3.87      3.87      3.88      0.01         0.01
  WSL175                      3.88      3.88      3.88      2.61         2.69
  XRpipe                      3.88      3.88      3.96      0.01         0.01
  
  
  ***************
  Pumping Summary
  ***************
  
  ---------------------------------------------------------------------------------------------------------
                                                  Min       Avg       Max     Total     Power    % Time Off
                        Percent   Number of      Flow      Flow      Flow    Volume     Usage    Pump Curve
  Pump                 Utilized   Start-Ups       MLD       MLD       MLD  10^6 ltr     Kw-hr    Low   High
  ---------------------------------------------------------------------------------------------------------
  XR-Pump-1               96.32           1      0.00      8.12      8.12     1.303      6.45    0.0    0.0
  XR-Pump-3               91.52          17      0.00      8.12      8.12     1.239      5.96    0.0    0.0
  XR-Pump-2               96.18           1      0.00      8.12      8.12     1.301      6.43    0.0    0.0
  XR-Pump-4               66.53           8      0.00      8.12      8.12     0.900      3.43    0.0    0.0
  CC-Pump-1               48.54           4      0.00     17.28     17.28     1.398      3.05    0.0    0.0
  CC-Pump-2                0.00           0      0.00      0.00      0.00     0.000      0.00    0.0    0.0
  JK-Pump-1                0.00           0      0.00      0.00      0.00     0.000      0.00    0.0    0.0
  JK-Pump-2                0.00           0      0.00      0.00      0.00     0.000      0.00    0.0    0.0
  
  
  ***************************
  Link Pollutant Load Summary
  ***************************
  
  ------------------------------------------------------------------------------------------
                                 COD         NH3-N            TN            TP            SS
  Link                            kg            kg            kg            kg            kg
  ------------------------------------------------------------------------------------------
  WSL49                     2585.487         0.000         0.000         0.000         0.000
  WSL1465                    850.400         0.000         0.000         0.000         0.000
  WSL1472                   2328.482         0.000         0.000         0.000         0.000
  WSL1475                   2603.086         0.000         0.000         0.000         0.000
  WSL1476                    257.488         0.000         0.000         0.000         0.000
  WSL1477                    255.813         0.000         0.000         0.000         0.000
  WSL1490                    838.947         0.000         0.000         0.000         0.000
  WSL1491                    842.354         0.000         0.000         0.000         0.000
  WSL1492                    848.032         0.000         0.000         0.000         0.000
  WSL1507                      1.382         0.000         0.000         0.000         0.000
  WSL1508                    161.702         0.000         0.000         0.000         0.000
  WSL1512                    161.633         0.000         0.000         0.000         0.000
  WSL1513                    162.715         0.000         0.000         0.000         0.000
  WSL1515                   1475.007         0.000         0.000         0.000         0.000
  WSL1516                    256.205         0.000         0.000         0.000         0.000
  WSL1518                    254.168         0.000         0.000         0.000         0.000
  WSL1519                    254.165         0.000         0.000         0.000         0.000
  WSL1521                    254.872         0.000         0.000         0.000         0.000
  WSL1543                    253.943         0.000         0.000         0.000         0.000
  WSL1961                    827.326         0.000         0.000         0.000         0.000
  WSL1964                    835.706         0.000         0.000         0.000         0.000
  WSL2010                    909.906         0.000         0.000         0.000         0.000
  WSL2011                    913.938         0.000         0.000         0.000         0.000
  WSL2012                    918.491         0.000         0.000         0.000         0.000
  WSL2013                    980.851         0.000         0.000         0.000         0.000
  WSL2014                   1233.566         0.000         0.000         0.000         0.000
  WSL2015                   1232.939         0.000         0.000         0.000         0.000
  WSL2016                   1360.631         0.000         0.000         0.000         0.000
  WSL2017                   1361.475         0.000         0.000         0.000         0.000
  WSL2018                   1469.185         0.000         0.000         0.000         0.000
  WSL2019                   1470.173         0.000         0.000         0.000         0.000
  WSL2028                    906.560         0.000         0.000         0.000         0.000
  WSL2029                   1365.341         0.000         0.000         0.000         0.000
  WSL2038                    107.603         0.000         0.000         0.000         0.000
  WSL2039                    115.203         0.000         0.000         0.000         0.000
  WSL2041                    111.571         0.000         0.000         0.000         0.000
  WSL2294                    894.760         0.000         0.000         0.000         0.000
  WSL2295                    894.470         0.000         0.000         0.000         0.000
  WSL2296                    902.128         0.000         0.000         0.000         0.000
  WSL2297                    904.038         0.000         0.000         0.000         0.000
  WSL2298                    897.083         0.000         0.000         0.000         0.000
  WSL2301                    903.862         0.000         0.000         0.000         0.000
  WSL2302                    907.347         0.000         0.000         0.000         0.000
  WSL2441                    895.254         0.000         0.000         0.000         0.000
  WSL2442                    546.569         0.000         0.000         0.000         0.000
  WSL2443                    546.129         0.000         0.000         0.000         0.000
  WSL2444                    543.629         0.000         0.000         0.000         0.000
  WSL2446                    542.230         0.000         0.000         0.000         0.000
  WSL2447                    539.410         0.000         0.000         0.000         0.000
  WSL2448                    536.155         0.000         0.000         0.000         0.000
  WSL2449                    532.996         0.000         0.000         0.000         0.000
  WSL2450                    531.178         0.000         0.000         0.000         0.000
  WSL2451                    530.524         0.000         0.000         0.000         0.000
  WSL2452                    529.620         0.000         0.000         0.000         0.000
  WSL2454                    525.914         0.000         0.000         0.000         0.000
  WSL2478                    524.648         0.000         0.000         0.000         0.000
  WSL2479                    443.629         0.000         0.000         0.000         0.000
  WSL2480                    440.624         0.000         0.000         0.000         0.000
  WSL2482                    436.452         0.000         0.000         0.000         0.000
  WSL2484                    386.346         0.000         0.000         0.000         0.000
  WSL2493                    548.508         0.000         0.000         0.000         0.000
  WSL2867                   1474.422         0.000         0.000         0.000         0.000
  WSL2868                   1478.681         0.000         0.000         0.000         0.000
  WSL348                    1345.931         0.000         0.000         0.000         0.000
  WSL175                    1352.433         0.000         0.000         0.000         0.000
  WSL1467                   2326.571         0.000         0.000         0.000         0.000
  WSL1473                   2330.322         0.000         0.000         0.000         0.000
  XRpipe                    1365.345         0.000         0.000         0.000         0.000
  8                            0.000         0.000         0.000         0.000         0.000
  19                           0.000         0.000         0.000         0.000         0.000
  17                           0.000         0.000         0.000         0.000         0.000
  4                            0.000         0.000         0.000         0.000         0.000
  2                         2611.700         0.000         0.000         0.000         0.000
  XR-Pump-1                  223.337         0.000         0.000         0.000         0.000
  XR-Pump-3                  212.507         0.000         0.000         0.000         0.000
  XR-Pump-2                  223.023         0.000         0.000         0.000         0.000
  XR-Pump-4                  156.563         0.000         0.000         0.000         0.000
  CC-Pump-1                  270.367         0.000         0.000         0.000         0.000
  CC-Pump-2                    0.000         0.000         0.000         0.000         0.000
  JK-Pump-1                    0.000         0.000         0.000         0.000         0.000
  JK-Pump-2                    0.000         0.000         0.000         0.000         0.000
  

  Analysis begun on:  Wed Mar 20 15:01:39 2019
  Analysis ended on:  Wed Mar 20 15:01:39 2019
  Total elapsed time: < 1 sec