
  EPA STORM WATER MANAGEMENT MODEL - VERSION 5.1 (Build 5.2.0.dev1)
  --------------------------------------------------------------

  
  *********************************************************
  NOTE: The summary statistics displayed in this report are
  based on results found at every computational time step,  
  not just on results from each reporting time step.
  *********************************************************
  
  ****************
  Analysis Options
  ****************
  Flow Units ............... MLD
  Process Models:
    Rainfall/Runoff ........ YES
    RDII ................... NO
    Snowmelt ............... NO
    Groundwater ............ NO
    Flow Routing ........... YES
    Ponding Allowed ........ NO
    Water Quality .......... YES
  Infiltration Method ...... GREEN_AMPT
  Flow Routing Method ...... DYNWAVE
  Starting Date ............ 08/28/2015 08:00:00
  Ending Date .............. 08/28/2015 12:00:00
  Antecedent Dry Days ...... 4.0
  Report Time Step ......... 00:01:00
  Wet Time Step ............ 00:01:00
  Dry Time Step ............ 00:01:00
  Routing Time Step ........ 5.00 sec
  Variable Time Step ....... YES
  Maximum Trials ........... 8
  Number of Threads ........ 1
  Head Tolerance ........... 0.001500 m
  
  
  **************************        Volume         Depth
  Runoff Quantity Continuity     hectare-m            mm
  **************************     ---------       -------
  Total Precipitation ......         4.479        15.880
  Evaporation Loss .........         0.000         0.000
  Infiltration Loss ........         2.006         7.113
  Surface Runoff ...........         1.059         3.754
  Final Storage ............         1.417         5.022
  Continuity Error (%) .....        -0.056
  
  
  **************************           COD         NH3-N            TN            TP            SS
  Runoff Quality Continuity             kg            kg            kg            kg            kg
  **************************    ----------    ----------    ----------    ----------    ----------
  Initial Buildup ..........     13074.240         0.000         0.000         0.000         0.000
  Surface Buildup ..........       110.459         0.000         0.000         0.000         0.000
  Wet Deposition ...........         0.000         0.000         0.000         0.000         0.000
  Sweeping Removal .........         0.000         0.000         0.000         0.000         0.000
  Infiltration Loss ........       130.382         0.000         0.000         0.000         0.000
  BMP Removal ..............         0.000         0.000         0.000         0.000         0.000
  Surface Runoff ...........      1526.024         0.000         0.000         0.000         0.000
  Remaining Buildup ........     11526.269         0.000         0.000         0.000         0.000
  Continuity Error (%) .....         0.015         0.000         0.000         0.000         0.000
  
  
  **************************        Volume        Volume
  Flow Routing Continuity        hectare-m      10^6 ltr
  **************************     ---------     ---------
  Dry Weather Inflow .......         0.000         0.000
  Wet Weather Inflow .......         1.056        10.557
  Groundwater Inflow .......         0.000         0.000
  RDII Inflow ..............         0.000         0.000
  External Inflow ..........         0.561         5.611
  External Outflow .........         0.930         9.299
  Flooding Loss ............         0.587         5.865
  Evaporation Loss .........         0.000         0.000
  Exfiltration Loss ........         0.000         0.000
  Initial Stored Volume ....         0.000         0.000
  Final Stored Volume ......         0.101         1.008
  Continuity Error (%) .....        -0.028
  
  
  **************************           COD         NH3-N            TN            TP            SS
  Quality Routing Continuity            kg            kg            kg            kg            kg
  **************************    ----------    ----------    ----------    ----------    ----------
  Dry Weather Inflow .......         0.000         0.000         0.000         0.000         0.000
  Wet Weather Inflow .......      1522.434         0.000         0.000         0.000         0.000
  Groundwater Inflow .......         0.000         0.000         0.000         0.000         0.000
  RDII Inflow ..............         0.000         0.000         0.000         0.000         0.000
  External Inflow ..........       937.023         0.000         0.000         0.000         0.000
  External Outflow .........      1483.871         0.000         0.000         0.000         0.000
  Flooding Loss ............       845.916         0.000         0.000         0.000         0.000
  Exfiltration Loss ........         0.000         0.000         0.000         0.000         0.000
  Mass Reacted .............         0.000         0.000         0.000         0.000         0.000
  Initial Stored Mass ......         0.000         0.000         0.000         0.000         0.000
  Final Stored Mass ........       129.174         0.000         0.000         0.000         0.000
  Continuity Error (%) .....         0.020         0.000         0.000         0.000         0.000
  
  
  *************************
  Highest Continuity Errors
  *************************
  Node WS02005196 (1.34%)
  Node WS02003099 (1.28%)
  Node WS02005193 (1.19%)
  Node WS02003094 (1.02%)
  
  
  ***************************
  Time-Step Critical Elements
  ***************************
  Link WSL2448 (42.11%)
  Link WSL1477 (34.41%)
  Link WSL2867 (3.92%)
  
  
  ********************************
  Highest Flow Instability Indexes
  ********************************
  Link WSL1477 (64)
  Link WSL1516 (58)
  Link XRpipe (24)
  Link WSL1515 (23)
  Link WSL348 (21)
  
  
  *************************
  Routing Time Step Summary
  *************************
  Minimum Time Step           :     0.81 sec
  Average Time Step           :     3.02 sec
  Maximum Time Step           :     5.00 sec
  Percent in Steady State     :    -0.00
  Average Iterations per Step :     3.51
  Percent Not Converging      :    13.74
  
  
  ***************************
  Subcatchment Runoff Summary
  ***************************
  
  --------------------------------------------------------------------------------------------------------
                            Total      Total      Total      Total      Total       Total     Peak  Runoff
                           Precip      Runon       Evap      Infil     Runoff      Runoff   Runoff   Coeff
  Subcatchment                 mm         mm         mm         mm         mm    10^6 ltr      MLD
  --------------------------------------------------------------------------------------------------------
  1                         15.88      16.26       0.00       8.77      13.86        0.17     3.72   0.431
  2                         15.88       0.00       0.00       7.17       4.94        0.17     4.36   0.311
  3                         15.88       0.00       0.00       7.20       4.70        0.24     6.14   0.296
  4                         15.88       0.00       0.00       7.15       5.08        0.14     3.58   0.320
  5                         15.88      12.20       0.00       8.59      11.38        0.19     4.52   0.405
  6                         15.88       0.00       0.00       7.20       4.72        0.23     5.98   0.297
  7                         15.88       0.00       0.00       6.83       4.05        6.47   124.71   0.255
  8                         15.88       0.00       0.00       7.19       4.80        0.20     5.27   0.302
  9                         15.88       4.73       0.00       7.84       6.76        0.26     6.23   0.328
  17                        15.88       0.00       0.00       7.18       4.89        0.18     4.68   0.308
  18                        15.88       0.00       0.00       7.19       4.79        0.21     5.37   0.302
  28                        15.88      15.03       0.00       8.83      11.66        0.31     6.71   0.377
  29                        15.88       6.34       0.00       7.87       7.70        0.19     4.43   0.347
  30                        15.88      18.69       0.00       9.06      16.50        0.15     3.52   0.477
  31                        15.88       0.00       0.00       7.17       4.91        0.17     4.55   0.309
  33                        15.88       0.00       0.00       7.03       5.86        0.05     1.43   0.369
  34                        15.88      10.56       0.00       8.46      10.21        0.21     4.99   0.386
  35                        15.88       0.00       0.00       7.16       5.00        0.15     3.99   0.315
  36                        15.88       9.64       0.00       8.46       8.23        0.49    11.00   0.322
  39                        15.88       0.00       0.00       7.17       4.93        0.17     4.40   0.311
  40                        15.88       2.62       0.00       7.56       5.87        0.23     5.75   0.317
  41                        15.88       0.00       0.00       7.12       5.29        0.10     2.76   0.333
  42                        15.88       0.00       0.00       7.14       5.18        0.12     3.16   0.326
  43                        15.88       0.00       0.00       6.90       6.58        0.02     0.70   0.414
  44                        15.88     136.98       0.00      13.72     113.49        0.42     8.31   0.742
  45                        15.88       0.00       0.00       7.05       5.73        0.06     1.64   0.361
  46                        15.88       8.11       0.00       8.16       8.86        0.19     4.56   0.369
  47                        15.88       0.00       0.00       7.06       5.68        0.06     1.75   0.358
  48                        15.88       3.98       0.00       7.64       7.28        0.11     2.95   0.366
  55                        15.88       5.95       0.00       7.76       9.06        0.08     1.94   0.415
  56                        15.88       8.93       0.00       8.24       9.24        0.20     4.70   0.372
  57                        15.88       0.00       0.00       7.20       4.71        0.24     6.04   0.297
  59                        15.88       0.00       0.00       7.03       5.89        0.05     1.39   0.371
  60                        15.88      12.94       0.00       8.36      14.13        0.07     1.81   0.490
  61                        15.88       0.00       0.00       7.27       4.03        0.73    17.45   0.254
  62                        15.88       0.00       0.00       7.27       4.00        0.76    18.25   0.252
  64                        15.88       0.00       0.00       7.07       5.62        0.07     1.86   0.354
  
  
  ****************************
  Subcatchment Washoff Summary
  ****************************
  
  ------------------------------------------------------------------------------------------
                                 COD         NH3-N            TN            TP            SS
  Subcatchment                    kg            kg            kg            kg            kg
  ------------------------------------------------------------------------------------------
  1                           22.769         0.000         0.000         0.000         0.000
  2                            0.000         0.000         0.000         0.000         0.000
  3                            0.000         0.000         0.000         0.000         0.000
  4                           20.556         0.000         0.000         0.000         0.000
  5                           57.101         0.000         0.000         0.000         0.000
  6                           33.286         0.000         0.000         0.000         0.000
  7                          837.620         0.000         0.000         0.000         0.000
  8                           29.543         0.000         0.000         0.000         0.000
  9                           54.606         0.000         0.000         0.000         0.000
  17                          26.398         0.000         0.000         0.000         0.000
  18                          30.086         0.000         0.000         0.000         0.000
  28                         109.922         0.000         0.000         0.000         0.000
  29                          51.280         0.000         0.000         0.000         0.000
  30                          48.025         0.000         0.000         0.000         0.000
  31                          25.724         0.000         0.000         0.000         0.000
  33                           8.721         0.000         0.000         0.000         0.000
  34                          60.394         0.000         0.000         0.000         0.000
  35                          22.742         0.000         0.000         0.000         0.000
  36                         133.357         0.000         0.000         0.000         0.000
  39                          24.930         0.000         0.000         0.000         0.000
  40                          42.817         0.000         0.000         0.000         0.000
  41                          16.105         0.000         0.000         0.000         0.000
  42                          18.243         0.000         0.000         0.000         0.000
  43                           4.475         0.000         0.000         0.000         0.000
  44                         121.548         0.000         0.000         0.000         0.000
  45                           9.915         0.000         0.000         0.000         0.000
  46                          52.425         0.000         0.000         0.000         0.000
  47                          10.497         0.000         0.000         0.000         0.000
  48                          25.706         0.000         0.000         0.000         0.000
  55                          19.754         0.000         0.000         0.000         0.000
  56                          57.161         0.000         0.000         0.000         0.000
  57                          33.601         0.000         0.000         0.000         0.000
  59                           8.492         0.000         0.000         0.000         0.000
  60                          23.153         0.000         0.000         0.000         0.000
  61                          90.939         0.000         0.000         0.000         0.000
  62                          94.777         0.000         0.000         0.000         0.000
  64                          11.140         0.000         0.000         0.000         0.000
  ------------------------------------------------------------------------------------------
  System                    2237.808         0.000         0.000         0.000         0.000
  
  
  ******************
  Node Depth Summary
  ******************
  
  ---------------------------------------------------------------------------------
                                 Average  Maximum  Maximum  Time of Max    Reported
                                   Depth    Depth      HGL   Occurrence   Max Depth
  Node                 Type       Meters   Meters   Meters  days hr:min      Meters
  ---------------------------------------------------------------------------------
  WS01000070           JUNCTION     0.00     0.00     0.00     0  00:00        0.00
  WS01000323           JUNCTION     0.00     0.00     0.00     0  00:00        0.00
  WS01000533           JUNCTION     0.00     0.00     6.86     0  00:00        0.00
  WS01005172           JUNCTION     0.00     0.00     0.00     0  00:00        0.00
  WS01005181           JUNCTION     0.00     0.00     0.00     0  00:00        0.00
  WS01009841           JUNCTION     0.00     0.00     0.00     0  00:00        0.00
  WS02000078           JUNCTION     0.00     0.00     0.00     0  00:00        0.00
  WS02000112           JUNCTION     0.00     0.00     0.00     0  00:00        0.00
  WS02000136           JUNCTION     0.00     0.00     0.00     0  00:00        0.00
  WS02001211           JUNCTION     0.42     0.47     5.31     0  03:06        0.47
  WS02001212           JUNCTION     0.36     0.44     5.24     0  03:05        0.44
  WS02001213           JUNCTION     0.45     0.55     5.25     0  03:07        0.55
  WS02003059           JUNCTION     0.42     0.58     5.23     0  03:03        0.58
  WS02003060           JUNCTION     0.47     0.67     5.22     0  03:02        0.67
  WS02003066           JUNCTION     0.18     0.33     5.63     0  03:00        0.32
  WS02003067           JUNCTION     0.32     0.55     5.87     0  02:59        0.55
  WS02003071           JUNCTION     0.52     0.72     5.12     0  03:05        0.72
  WS02003072           JUNCTION     0.44     0.65     5.02     0  03:20        0.63
  WS02003073           JUNCTION     0.51     0.78     5.02     0  03:19        0.76
  WS02003076           JUNCTION     0.46     0.72     4.95     0  03:05        0.72
  WS02003077           JUNCTION     0.07     0.12     5.13     0  03:05        0.12
  WS02003078           JUNCTION     0.04     0.08     6.98     0  03:05        0.08
  WS02003079           JUNCTION     0.14     0.27     7.18     0  03:05        0.27
  WS02003093           JUNCTION     0.02     0.09     7.43     0  03:02        0.09
  WS02003094           JUNCTION     0.12     0.21     7.43     0  03:01        0.21
  WS02003098           JUNCTION     0.07     0.14     7.31     0  03:02        0.14
  WS02003099           JUNCTION     0.15     0.28     7.32     0  03:03        0.28
  WS02003102           JUNCTION     0.13     0.26     7.29     0  03:03        0.26
  WS02003103           JUNCTION     0.15     0.29     7.26     0  03:04        0.29
  WS02003104           JUNCTION     0.15     0.28     7.24     0  03:04        0.28
  WS02003106           JUNCTION     0.15     0.28     7.21     0  03:05        0.28
  WS02004050           JUNCTION     0.32     0.46     4.68     0  03:06        0.45
  WS02004053           JUNCTION     0.00     0.00     0.00     0  00:00        0.00
  WS02004136           JUNCTION     0.17     0.18     6.91     0  01:22        0.18
  WS02004139           JUNCTION     0.35     0.38     5.34     0  03:07        0.38
  WS02004401           JUNCTION     0.30     0.52     6.52     0  03:01        0.52
  WS02004402           JUNCTION     0.31     0.54     6.50     0  03:01        0.54
  WS02004403           JUNCTION     0.30     0.54     6.47     0  03:01        0.54
  WS02004404           JUNCTION     0.38     0.63     6.48     0  03:01        0.63
  WS02004405           JUNCTION     0.38     0.63     6.47     0  03:01        0.63
  WS02004406           JUNCTION     0.37     0.61     6.44     0  03:02        0.61
  WS02004407           JUNCTION     0.35     0.58     6.38     0  03:02        0.58
  WS02004409           JUNCTION     0.34     0.56     6.33     0  03:02        0.56
  WS02004410           JUNCTION     0.33     0.54     6.26     0  03:02        0.54
  WS02004411           JUNCTION     0.31     0.50     6.18     0  03:02        0.50
  WS02004412           JUNCTION     0.26     0.45     6.09     0  03:03        0.45
  WS02004413           JUNCTION     0.27     0.47     5.94     0  03:03        0.47
  WS02004997           JUNCTION     5.33     6.68     8.29     0  03:00        6.68
  WS02005192           JUNCTION     0.15     0.29     8.16     0  03:01        0.27
  WS02005193           JUNCTION     0.17     0.31     8.13     0  03:01        0.31
  WS02005196           JUNCTION     0.16     0.29     8.14     0  03:02        0.29
  WS02006109           JUNCTION     0.35     0.57     7.19     0  03:08        0.57
  WS02006110           JUNCTION     0.32     0.52     7.12     0  03:08        0.52
  WS02006111           JUNCTION     0.17     0.30     6.88     0  03:08        0.30
  WS02006112           JUNCTION     0.33     0.54     6.66     0  03:00        0.54
  WS02006113           JUNCTION     0.27     0.44     7.03     0  03:07        0.44
  WS02006115           JUNCTION     0.29     0.49     6.59     0  03:00        0.49
  WS02006116           JUNCTION     0.31     0.52     6.56     0  03:00        0.52
  WS02006183           JUNCTION     0.00     0.00     0.00     0  00:00        0.00
  WS02006228           JUNCTION     0.35     0.58     7.23     0  03:09        0.58
  WS02006229           JUNCTION     0.32     0.55     7.24     0  03:09        0.55
  WS02006230           JUNCTION     0.30     0.53     7.28     0  03:09        0.53
  WS02006231           JUNCTION     0.22     0.40     7.30     0  03:07        0.40
  WS02006232           JUNCTION     0.21     0.37     7.40     0  03:06        0.37
  WS02006234           JUNCTION     0.21     0.36     7.52     0  03:06        0.36
  WS02006235           JUNCTION     0.25     0.42     7.59     0  03:06        0.42
  WS02006238           JUNCTION     0.25     0.42     7.60     0  03:06        0.42
  WS02006239           JUNCTION     0.27     0.46     7.67     0  03:05        0.46
  WS02006242           JUNCTION     0.28     0.49     7.79     0  03:05        0.49
  WS02006240           JUNCTION     0.23     0.42     7.71     0  03:05        0.42
  WS02006243           JUNCTION     0.22     0.41     7.83     0  03:04        0.41
  WS02006245           JUNCTION     0.23     0.41     7.90     0  03:04        0.41
  WS02006247           JUNCTION     0.25     0.45     7.96     0  03:03        0.44
  WS02006248           JUNCTION     0.20     0.39     7.98     0  03:03        0.39
  WS02006249           JUNCTION     0.23     0.42     8.02     0  03:03        0.42
  WS02006251           JUNCTION     0.22     0.42     8.09     0  03:02        0.42
  WS02006253           JUNCTION     0.16     0.33     8.13     0  03:02        0.31
  WS02618401           JUNCTION     0.00     0.00     0.00     0  00:00        0.00
  WS8802               JUNCTION     0.00     0.00     4.38     0  00:00        0.00
  WSA1649              JUNCTION     0.00     0.00     0.00     0  00:00        0.00
  WSF200               JUNCTION     0.18     0.31     5.41     0  03:00        0.30
  XR-Inflow            JUNCTION     5.18     6.55     8.36     0  02:24        6.55
  WS02004114           JUNCTION     5.31     6.65     8.25     0  03:00        6.65
  outfall-2            OUTFALL      0.00     0.00     7.00     0  00:00        0.00
  outfall-5            OUTFALL      0.00     0.00     7.67     0  00:00        0.00
  outfall-14           OUTFALL      0.00     0.00     7.66     0  00:00        0.00
  outfall-16           OUTFALL      0.00     0.00     8.39     0  00:00        0.00
  12                   OUTFALL      0.32     0.45     0.45     0  03:06        0.45
  XR-storage           STORAGE      6.38     7.72     8.22     0  01:56        7.72
  CC-storage           STORAGE      3.57     5.12     8.30     0  03:03        5.12
  JK-storage           STORAGE      3.93     4.80     7.80     0  01:49        4.80
  
  
  *******************
  Node Inflow Summary
  *******************
  
  -------------------------------------------------------------------------------------------------
                                  Maximum  Maximum                  Lateral       Total        Flow
                                  Lateral    Total  Time of Max      Inflow      Inflow     Balance
                                   Inflow   Inflow   Occurrence      Volume      Volume       Error
  Node                 Type           MLD      MLD  days hr:min    10^6 ltr    10^6 ltr     Percent
  -------------------------------------------------------------------------------------------------
  WS01000070           JUNCTION      0.00     0.00     0  00:00           0           0       0.000 ltr
  WS01000323           JUNCTION      0.00     0.00     0  00:00           0           0       0.000 ltr
  WS01000533           JUNCTION      0.00     0.00     0  00:00           0           0       0.000 ltr
  WS01005172           JUNCTION      0.00     0.00     0  00:00           0           0       0.000 ltr
  WS01005181           JUNCTION      0.00     0.00     0  00:00           0           0       0.000 ltr
  WS01009841           JUNCTION      0.00     0.00     0  00:00           0           0       0.000 ltr
  WS02000078           JUNCTION      0.00     0.00     0  00:00           0           0       0.000 ltr
  WS02000112           JUNCTION      0.00     0.00     0  00:00           0           0       0.000 ltr
  WS02000136           JUNCTION      0.00     0.00     0  00:00           0           0       0.000 ltr
  WS02001211           JUNCTION      0.25    33.93     0  01:39      0.0407        4.84       0.534
  WS02001212           JUNCTION      0.21    34.28     0  03:11      0.0346        4.85       0.299
  WS02001213           JUNCTION      0.30    35.15     0  03:09      0.0489        4.89       0.408
  WS02003059           JUNCTION      0.23    36.02     0  03:09      0.0378        4.91       0.496
  WS02003060           JUNCTION      0.16   102.27     0  03:04      0.0252        8.65       0.417
  WS02003066           JUNCTION      0.08    78.33     0  03:04      0.0122        3.73       0.193
  WS02003067           JUNCTION      0.26    64.98     0  03:03      0.0395        3.73       0.234
  WS02003071           JUNCTION      0.35   100.42     0  03:05      0.0538        8.67       0.443
  WS02003072           JUNCTION      0.24    99.54     0  03:05      0.0382        8.67       0.275
  WS02003073           JUNCTION      0.07   114.32     0  03:01     0.00978        9.16       0.260
  WS02003076           JUNCTION      0.72   124.05     0  03:07        0.12        9.25       0.122
  WS02003077           JUNCTION      0.04    10.60     0  03:05      0.0059       0.499       0.146
  WS02003078           JUNCTION      0.03    10.57     0  03:05     0.00419       0.493      -0.044
  WS02003079           JUNCTION      0.04    10.56     0  03:05     0.00561        0.49       0.312
  WS02003093           JUNCTION      0.02     0.08     0  03:01     0.00306     0.00345       0.655
  WS02003094           JUNCTION      6.28     6.28     0  03:01       0.264       0.268       1.026
  WS02003098           JUNCTION      0.02     6.12     0  03:01     0.00293       0.268       0.627
  WS02003099           JUNCTION      0.07     6.12     0  03:02      0.0109       0.277       1.300
  WS02003102           JUNCTION      5.29    10.73     0  03:01       0.208       0.481       0.619
  WS02003103           JUNCTION      0.02    10.57     0  03:03     0.00239        0.48       0.456
  WS02003104           JUNCTION      0.02    10.54     0  03:04     0.00302       0.481       0.386
  WS02003106           JUNCTION      0.05    10.55     0  03:04     0.00728       0.487       0.477
  WS02004050           JUNCTION      0.72   140.73     0  03:05       0.119        9.36       0.663
  WS02004053           JUNCTION      0.00     0.00     0  00:00           0           0       0.000 ltr
  WS02004136           JUNCTION      0.44    32.92     0  01:19      0.0703        4.76       0.068
  WS02004139           JUNCTION      0.38    33.58     0  01:22      0.0619        4.82       0.374
  WS02004401           JUNCTION      0.05    44.82     0  03:09     0.00897        2.64       0.243
  WS02004402           JUNCTION      0.22    44.73     0  03:09      0.0335        2.66       0.226
  WS02004403           JUNCTION      0.23    44.99     0  03:10      0.0349        2.69       0.191
  WS02004404           JUNCTION      0.24    44.89     0  03:10      0.0365        2.73       0.190
  WS02004405           JUNCTION      3.65    47.67     0  03:01       0.147        2.87       0.274
  WS02004406           JUNCTION      6.83    54.25     0  03:01       0.327        3.19       0.380
  WS02004407           JUNCTION      0.11    54.24     0  03:01      0.0171        3.19       0.341
  WS02004409           JUNCTION      4.70    58.63     0  03:02       0.227        3.41       0.285
  WS02004410           JUNCTION      0.15    58.89     0  03:02      0.0226        3.42       0.290
  WS02004411           JUNCTION      0.25    59.15     0  03:03      0.0379        3.45       0.252
  WS02004412           JUNCTION      6.07    64.53     0  03:03       0.247        3.69       0.194
  WS02004413           JUNCTION      0.11    64.67     0  03:03      0.0172         3.7       0.187
  WS02004997           JUNCTION      0.42    63.57     0  03:00      0.0693        7.21       0.543
  WS02005192           JUNCTION      6.13     6.13     0  03:01       0.253       0.255       0.531
  WS02005193           JUNCTION      0.09     7.31     0  02:55      0.0146       0.308       1.199
  WS02005196           JUNCTION      0.12     7.13     0  03:01       0.019       0.282       1.360
  WS02006109           JUNCTION      0.08    39.74     0  03:09      0.0135        2.28       0.351
  WS02006110           JUNCTION      0.08    39.96     0  03:09      0.0132        2.29       0.333
  WS02006111           JUNCTION      0.24    44.38     0  03:09      0.0366        2.58       0.113
  WS02006112           JUNCTION      0.18    44.70     0  03:08      0.0273         2.6       0.263
  WS02006113           JUNCTION      6.29    44.29     0  03:09       0.266        2.54       0.223
  WS02006115           JUNCTION      0.08    45.02     0  03:08      0.0134        2.61       0.262
  WS02006116           JUNCTION      0.24    44.79     0  03:09       0.036        2.64       0.256
  WS02006183           JUNCTION      0.00     0.00     0  00:00           0           0       0.000 ltr
  WS02006228           JUNCTION      8.46    39.89     0  03:07       0.447        2.27       0.258
  WS02006229           JUNCTION      0.13    31.89     0  03:07        0.02        1.83       0.245
  WS02006230           JUNCTION      0.07    32.26     0  03:07      0.0116        1.81       0.220
  WS02006231           JUNCTION      0.13    32.25     0  03:06      0.0205        1.81       0.111
  WS02006232           JUNCTION      4.43    32.12     0  03:06        0.18        1.79       0.120
  WS02006234           JUNCTION      0.14    28.89     0  03:06      0.0216        1.61       0.133
  WS02006235           JUNCTION      0.14    28.81     0  03:06      0.0223        1.59       0.081
  WS02006238           JUNCTION      0.15    28.69     0  03:06      0.0235        1.57       0.137
  WS02006239           JUNCTION      0.11    28.49     0  03:05      0.0174        1.55       0.202
  WS02006242           JUNCTION      0.08    28.92     0  03:04      0.0129        1.53       0.284
  WS02006240           JUNCTION      0.06    28.61     0  03:05     0.00992        1.53       0.165
  WS02006243           JUNCTION      0.17    29.17     0  03:04      0.0269        1.52       0.246
  WS02006245           JUNCTION      0.07    29.48     0  03:03      0.0113         1.5       0.362
  WS02006247           JUNCTION      3.86    29.16     0  03:03       0.192        1.49       0.366
  WS02006248           JUNCTION      0.12    25.67     0  03:03      0.0192         1.3       0.297
  WS02006249           JUNCTION      0.19    26.10     0  03:02      0.0286        1.29       0.565
  WS02006251           JUNCTION      2.00    26.58     0  03:02      0.0848        1.27       0.523
  WS02006253           JUNCTION      0.11    24.77     0  03:02      0.0173        1.21       0.228
  WS02618401           JUNCTION      0.00     0.00     0  00:00           0           0       0.000 ltr
  WS8802               JUNCTION      0.00     0.00     0  00:00           0           0       0.000 ltr
  WSA1649              JUNCTION      0.00     0.00     0  00:00           0           0       0.000 ltr
  WSF200               JUNCTION      0.14    71.03     0  03:00      0.0216        3.75      -0.006
  XR-Inflow            JUNCTION    142.27   142.27     0  03:01        9.79        9.79       0.243
  WS02004114           JUNCTION      0.57    64.10     0  02:58      0.0916        7.27       0.332
  outfall-2            OUTFALL       0.00     0.00     0  00:00           0           0       0.000 ltr
  outfall-5            OUTFALL       0.00     0.00     0  00:00           0           0       0.000 ltr
  outfall-14           OUTFALL       0.00     0.00     0  00:00           0           0       0.000 ltr
  outfall-16           OUTFALL       0.00     0.00     0  00:00           0           0       0.000 ltr
  12                   OUTFALL       0.00   115.55     0  03:06           0         9.3       0.000
  XR-storage           STORAGE       0.00    64.10     0  02:59           0        7.24       0.647
  CC-storage           STORAGE      18.91    18.91     0  03:01        1.01        1.01       0.001
  JK-storage           STORAGE      19.14    19.14     0  03:01       0.936       0.936       0.008
  
  
  **********************
  Node Surcharge Summary
  **********************
  
  Surcharging occurs when water rises above the top of the highest conduit.
  ---------------------------------------------------------------------
                                               Max. Height   Min. Depth
                                   Hours       Above Crown    Below Rim
  Node                 Type      Surcharged         Meters       Meters
  ---------------------------------------------------------------------
  WS01000070           JUNCTION        4.00          0.000        0.000
  WS01000323           JUNCTION        4.00          0.000        0.000
  WS01000533           JUNCTION        4.00          0.000        2.147
  WS01005172           JUNCTION        4.00          0.000        0.000
  WS01005181           JUNCTION        4.00          0.000        0.000
  WS01009841           JUNCTION        4.00          0.000        0.000
  WS02000078           JUNCTION        4.00          0.000        0.000
  WS02000112           JUNCTION        4.00          0.000        0.000
  WS02000136           JUNCTION        4.00          0.000        0.000
  WS02004053           JUNCTION        4.00          0.000        0.000
  WS02004997           JUNCTION        3.88          5.784        0.216
  WS02006183           JUNCTION        4.00          0.000        0.000
  WS02618401           JUNCTION        4.00          0.000        0.000
  WS8802               JUNCTION        4.00          0.000        4.942
  WSA1649              JUNCTION        4.00          0.000        0.000
  XR-Inflow            JUNCTION        3.87          5.650        0.000
  WS02004114           JUNCTION        3.88          5.748        0.767
  
  
  *********************
  Node Flooding Summary
  *********************
  
  Flooding refers to all water that overflows a node, whether it ponds or not.
  --------------------------------------------------------------------------
                                                             Total   Maximum
                                 Maximum   Time of Max       Flood    Ponded
                        Hours       Rate    Occurrence      Volume     Depth
  Node                 Flooded       MLD   days hr:min    10^6 ltr    Meters
  --------------------------------------------------------------------------
  XR-Inflow               1.60     79.09      0  03:01       2.626     0.000
  XR-storage              2.06     31.62      0  03:00       2.440     0.000
  JK-storage              2.17     19.13      0  03:01       0.800     0.000
  
  
  **********************
  Storage Volume Summary
  **********************
  
  --------------------------------------------------------------------------------------------------
                         Average     Avg  Evap Exfil       Maximum     Max    Time of Max    Maximum
                          Volume    Pcnt  Pcnt  Pcnt        Volume    Pcnt     Occurrence    Outflow
  Storage Unit           1000 m3    Full  Loss  Loss       1000 m3    Full    days hr:min        MLD
  --------------------------------------------------------------------------------------------------
  XR-storage               0.052      83     0     0         0.063     100       0  01:56      32.48
  CC-storage               0.101      63     0     0         0.145      91       0  03:03      17.28
  JK-storage               0.111      82     0     0         0.136     100       0  01:49       0.00
  
  
  ***********************
  Outfall Loading Summary
  ***********************
  
  ---------------------------------------------------------------------------------------------------------------------------------
                         Flow       Avg       Max       Total         Total         Total         Total         Total         Total
                         Freq      Flow      Flow      Volume           COD         NH3-N            TN            TP            SS
  Outfall Node           Pcnt       MLD       MLD    10^6 ltr            kg            kg            kg            kg            kg
  ---------------------------------------------------------------------------------------------------------------------------------
  outfall-2              0.00      0.00      0.00       0.000         0.000         0.000         0.000         0.000         0.000
  outfall-5              0.00      0.00      0.00       0.000         0.000         0.000         0.000         0.000         0.000
  outfall-14             0.00      0.00      0.00       0.000         0.000         0.000         0.000         0.000         0.000
  outfall-16             0.00      0.00      0.00       0.000         0.000         0.000         0.000         0.000         0.000
  12                    99.98     64.18    115.55       9.299      1484.089         0.000         0.000         0.000         0.000
  ---------------------------------------------------------------------------------------------------------------------------------
  System                20.00     64.18    115.55       9.299      1484.089         0.000         0.000         0.000         0.000
  
  
  ********************
  Link Flow Summary
  ********************
  
  -----------------------------------------------------------------------------
                                 Maximum  Time of Max   Maximum    Max/    Max/
                                  |Flow|   Occurrence   |Veloc|    Full    Full
  Link                 Type          MLD  days hr:min     m/sec    Flow   Depth
  -----------------------------------------------------------------------------
  WSL49                CONDUIT    123.33     0  03:07      2.31    1.53    0.61
  WSL1465              CONDUIT     38.35     0  03:10      1.66    0.35    0.61
  WSL1472              CONDUIT     99.33     0  03:05      1.82    1.13    0.57
  WSL1475              CONDUIT    140.02     0  03:05      2.84    1.49    0.41
  WSL1476              CONDUIT     10.60     0  03:05      0.50    0.05    0.55
  WSL1477              CONDUIT     10.55     0  03:05      2.19    0.42    0.29
  WSL1490              CONDUIT     34.07     0  03:11      1.39    0.55    0.46
  WSL1491              CONDUIT     34.87     0  03:09      1.45    0.20    0.50
  WSL1492              CONDUIT     35.80     0  03:09      1.39    0.55    0.56
  WSL1507              CONDUIT      0.17     0  03:03      0.11    0.00    0.19
  WSL1508              CONDUIT      6.11     0  03:01      0.88    0.17    0.22
  WSL1512              CONDUIT      6.06     0  03:02      0.60    0.04    0.21
  WSL1513              CONDUIT      6.17     0  03:03      0.49    0.36    0.33
  WSL1515              CONDUIT     78.26     0  03:04      2.58    0.76    0.35
  WSL1516              CONDUIT     10.57     0  03:05      3.89    0.04    0.17
  WSL1518              CONDUIT     10.55     0  03:03      0.82    0.21    0.34
  WSL1519              CONDUIT     10.51     0  03:04      0.78    0.26    0.35
  WSL1521              CONDUIT     10.53     0  03:05      0.83    0.30    0.34
  WSL1543              CONDUIT     10.53     0  03:04      0.77    0.33    0.35
  WSL1961              CONDUIT     33.20     0  01:22      3.07    0.07    0.28
  WSL1964              CONDUIT     33.68     0  01:39      1.38    0.18    0.36
  WSL2010              CONDUIT     44.80     0  03:10      1.27    0.57    0.54
  WSL2011              CONDUIT     44.69     0  03:10      1.15    0.29    0.59
  WSL2012              CONDUIT     44.59     0  03:11      1.05    0.68    0.63
  WSL2013              CONDUIT     47.61     0  03:01      1.12    1.18    0.62
  WSL2014              CONDUIT     54.15     0  03:01      1.30    0.86    0.59
  WSL2015              CONDUIT     54.20     0  03:02      1.36    0.73    0.57
  WSL2016              CONDUIT     58.77     0  03:02      1.53    0.68    0.55
  WSL2017              CONDUIT     58.95     0  03:03      1.64    0.72    0.52
  WSL2018              CONDUIT     64.57     0  03:03      2.12    0.39    0.46
  WSL2019              CONDUIT     64.77     0  03:03      1.96    0.38    0.50
  WSL2028              CONDUIT     44.55     0  03:09      1.26    0.48    0.53
  WSL2029              CONDUIT     59.31     0  03:03      1.87    0.75    0.48
  WSL2038              CONDUIT      7.03     0  03:01      0.78    0.35    0.48
  WSL2039              CONDUIT     10.60     0  02:55      1.43    0.54    0.52
  WSL2041              CONDUIT      7.23     0  02:55      0.94    0.35    0.50
  WSL2294              CONDUIT     39.89     0  03:09      1.28    1.34    0.68
  WSL2295              CONDUIT     40.38     0  03:09      1.49    1.82    0.60
  WSL2296              CONDUIT     44.55     0  03:08      1.98    0.25    0.52
  WSL2297              CONDUIT     44.95     0  03:08      1.30    0.86    0.51
  WSL2298              CONDUIT     44.19     0  03:09      2.28    2.03    0.46
  WSL2301              CONDUIT     44.60     0  03:09      1.32    0.41    0.51
  WSL2302              CONDUIT     44.77     0  03:09      1.28    0.55    0.52
  WSL2441              CONDUIT     39.66     0  03:09      1.21    1.02    0.72
  WSL2442              CONDUIT     31.78     0  03:07      1.26    0.81    0.77
  WSL2443              CONDUIT     32.19     0  03:07      1.43    0.50    0.67
  WSL2444              CONDUIT     32.14     0  03:06      1.71    0.51    0.55
  WSL2446              CONDUIT     29.09     0  03:06      1.65    0.50    0.52
  WSL2447              CONDUIT     28.77     0  03:06      1.53    1.48    0.55
  WSL2448              CONDUIT     28.69     0  03:06      1.38    0.81    0.60
  WSL2449              CONDUIT     28.57     0  03:06      1.30    1.00    0.63
  WSL2450              CONDUIT     28.40     0  03:05      1.30    0.59    0.63
  WSL2451              CONDUIT     28.55     0  03:05      1.28    1.86    0.65
  WSL2452              CONDUIT     28.85     0  03:04      1.33    0.55    0.64
  WSL2454              CONDUIT     29.03     0  03:04      1.48    0.68    0.59
  WSL2478              CONDUIT     29.41     0  03:03      1.38    1.04    0.61
  WSL2479              CONDUIT     25.67     0  03:03      1.24    0.49    0.60
  WSL2480              CONDUIT     25.56     0  03:03      1.28    1.18    0.58
  WSL2482              CONDUIT     25.95     0  03:02      1.25    0.68    0.60
  WSL2484              CONDUIT     24.77     0  03:02      1.83    0.35    0.53
  WSL2493              CONDUIT     31.56     0  03:07      1.08    0.53    0.71
  WSL2867              CONDUIT     70.91     0  03:00      3.60    0.15    0.26
  WSL2868              CONDUIT     66.02     0  03:04      1.85    0.13    0.40
  WSL348               CONDUIT     63.16     0  03:00      1.88    0.58    1.00
  WSL175               CONDUIT     63.56     0  03:00      2.29    2.14    1.00
  WSL1467              CONDUIT    100.12     0  03:05      1.72    0.53    0.58
  WSL1473              CONDUIT    104.41     0  03:01      1.96    0.43    0.58
  XRpipe               CONDUIT     64.10     0  02:59      2.54    0.16    1.00
  8                    CONDUIT      0.00     0  00:00      0.00    0.00    0.00
  19                   CONDUIT      0.00     0  00:00      0.00    0.00    0.00
  17                   CONDUIT      0.00     0  00:00      0.00    0.00    0.00
  4                    CONDUIT      0.00     0  00:00      0.00    0.00    0.00
  2                    CONDUIT    115.55     0  03:06      3.89    0.42    0.45
  XR-Pump-1            PUMP         8.12     0  00:08              1.00
  XR-Pump-3            PUMP         8.12     0  00:09              1.00
  XR-Pump-2            PUMP         8.12     0  00:09              1.00
  XR-Pump-4            PUMP         8.12     0  01:19              1.00
  CC-Pump-1            PUMP        17.28     0  01:34              1.00
  CC-Pump-2            PUMP         0.00     0  00:00              0.00
  JK-Pump-1            PUMP         0.00     0  00:00              0.00
  JK-Pump-2            PUMP         0.00     0  00:00              0.00
  
  
  ***************************
  Flow Classification Summary
  ***************************
  
  -------------------------------------------------------------------------------------
                      Adjusted    ---------- Fraction of Time in Flow Class ---------- 
                       /Actual         Up    Down  Sub   Sup   Up    Down  Norm  Inlet 
  Conduit               Length    Dry  Dry   Dry   Crit  Crit  Crit  Crit  Ltd   Ctrl  
  -------------------------------------------------------------------------------------
  WSL49                   1.00   0.00  0.00  0.00  1.00  0.00  0.00  0.00  0.00  0.00
  WSL1465                 1.00   0.00  0.00  0.00  1.00  0.00  0.00  0.00  0.10  0.00
  WSL1472                 1.00   0.00  0.00  0.00  1.00  0.00  0.00  0.00  0.00  0.00
  WSL1475                 1.00   0.00  0.00  0.00  0.13  0.87  0.00  0.00  0.00  0.00
  WSL1476                 1.00   0.00  0.00  0.00  1.00  0.00  0.00  0.00  1.00  0.00
  WSL1477                 1.00   0.00  0.00  0.00  0.01  0.99  0.00  0.00  0.47  0.00
  WSL1490                 1.00   0.00  0.00  0.00  1.00  0.00  0.00  0.00  0.00  0.00
  WSL1491                 1.00   0.00  0.00  0.00  1.00  0.00  0.00  0.00  0.04  0.00
  WSL1492                 1.00   0.00  0.00  0.00  1.00  0.00  0.00  0.00  0.00  0.00
  WSL1507                 1.00   0.00  0.00  0.00  1.00  0.00  0.00  0.00  0.65  0.00
  WSL1508                 1.00   0.00  0.00  0.00  1.00  0.00  0.00  0.00  0.00  0.00
  WSL1512                 1.00   0.00  0.00  0.00  1.00  0.00  0.00  0.00  1.00  0.00
  WSL1513                 1.00   0.00  0.00  0.00  1.00  0.00  0.00  0.00  0.00  0.00
  WSL1515                 1.00   0.00  0.00  0.00  0.13  0.87  0.00  0.00  0.05  0.00
  WSL1516                 1.00   0.00  0.00  0.00  0.00  1.00  0.00  0.00  1.00  0.00
  WSL1518                 1.00   0.00  0.00  0.00  1.00  0.00  0.00  0.00  0.56  0.00
  WSL1519                 1.00   0.00  0.00  0.00  1.00  0.00  0.00  0.00  0.35  0.00
  WSL1521                 1.00   0.00  0.00  0.00  1.00  0.00  0.00  0.00  0.02  0.00
  WSL1543                 1.00   0.00  0.00  0.00  1.00  0.00  0.00  0.00  0.02  0.00
  WSL1961                 1.00   0.00  0.00  0.00  0.01  0.99  0.00  0.00  0.98  0.00
  WSL1964                 1.00   0.00  0.00  0.00  1.00  0.00  0.00  0.00  0.05  0.00
  WSL2010                 1.00   0.00  0.00  0.00  1.00  0.00  0.00  0.00  0.01  0.00
  WSL2011                 1.00   0.00  0.00  0.00  1.00  0.00  0.00  0.00  0.27  0.00
  WSL2012                 1.00   0.00  0.00  0.00  1.00  0.00  0.00  0.00  0.00  0.00
  WSL2013                 1.00   0.00  0.00  0.00  1.00  0.00  0.00  0.00  0.00  0.00
  WSL2014                 1.00   0.00  0.00  0.00  1.00  0.00  0.00  0.00  0.00  0.00
  WSL2015                 1.00   0.00  0.00  0.00  1.00  0.00  0.00  0.00  0.02  0.00
  WSL2016                 1.00   0.00  0.00  0.00  1.00  0.00  0.00  0.00  0.01  0.00
  WSL2017                 1.00   0.00  0.00  0.00  1.00  0.00  0.00  0.00  0.04  0.00
  WSL2018                 1.00   0.00  0.00  0.00  0.01  0.99  0.00  0.00  0.08  0.00
  WSL2019                 1.00   0.00  0.00  0.00  0.50  0.50  0.00  0.00  0.11  0.00
  WSL2028                 1.00   0.00  0.00  0.00  1.00  0.00  0.00  0.00  0.07  0.00
  WSL2029                 1.00   0.00  0.00  0.00  0.60  0.40  0.00  0.00  0.00  0.00
  WSL2038                 1.00   0.00  0.00  0.00  1.00  0.00  0.00  0.00  0.03  0.00
  WSL2039                 1.00   0.00  0.00  0.00  0.89  0.11  0.00  0.00  0.01  0.00
  WSL2041                 1.00   0.00  0.00  0.00  1.00  0.00  0.00  0.00  0.32  0.00
  WSL2294                 1.00   0.00  0.00  0.00  1.00  0.00  0.00  0.00  0.00  0.00
  WSL2295                 1.00   0.00  0.00  0.00  1.00  0.00  0.00  0.00  0.00  0.00
  WSL2296                 1.00   0.00  0.00  0.00  0.23  0.77  0.00  0.00  0.72  0.00
  WSL2297                 1.00   0.00  0.00  0.00  1.00  0.00  0.00  0.00  0.00  0.00
  WSL2298                 1.00   0.00  0.00  0.00  0.05  0.95  0.00  0.00  0.00  0.00
  WSL2301                 1.00   0.00  0.00  0.00  1.00  0.00  0.00  0.00  0.09  0.00
  WSL2302                 1.00   0.00  0.00  0.00  1.00  0.00  0.00  0.00  0.07  0.00
  WSL2441                 1.00   0.00  0.00  0.00  1.00  0.00  0.00  0.00  0.01  0.00
  WSL2442                 1.00   0.00  0.00  0.00  1.00  0.00  0.00  0.00  0.22  0.00
  WSL2443                 1.00   0.00  0.00  0.00  1.00  0.00  0.00  0.00  0.60  0.00
  WSL2444                 1.00   0.00  0.00  0.00  0.16  0.84  0.00  0.00  0.41  0.00
  WSL2446                 1.00   0.00  0.00  0.00  0.26  0.74  0.00  0.00  0.20  0.00
  WSL2447                 1.00   0.00  0.00  0.00  1.00  0.00  0.00  0.00  0.00  0.00
  WSL2448                 1.00   0.00  0.00  0.00  1.00  0.00  0.00  0.00  0.03  0.00
  WSL2449                 1.00   0.00  0.00  0.00  1.00  0.00  0.00  0.00  0.03  0.00
  WSL2450                 1.00   0.00  0.00  0.00  1.00  0.00  0.00  0.00  0.46  0.00
  WSL2451                 1.00   0.00  0.00  0.00  1.00  0.00  0.00  0.00  0.00  0.00
  WSL2452                 1.00   0.00  0.00  0.00  1.00  0.00  0.00  0.00  0.62  0.00
  WSL2454                 1.00   0.00  0.00  0.00  0.99  0.01  0.00  0.00  0.07  0.00
  WSL2478                 1.00   0.00  0.00  0.00  1.00  0.00  0.00  0.00  0.00  0.00
  WSL2479                 1.00   0.00  0.00  0.00  1.00  0.00  0.00  0.00  0.57  0.00
  WSL2480                 1.00   0.00  0.00  0.00  1.00  0.00  0.00  0.00  0.00  0.00
  WSL2482                 1.00   0.00  0.00  0.00  1.00  0.00  0.00  0.00  0.63  0.00
  WSL2484                 1.00   0.00  0.00  0.00  0.98  0.02  0.00  0.00  0.67  0.00
  WSL2493                 1.00   0.00  0.00  0.00  1.00  0.00  0.00  0.00  0.05  0.00
  WSL2867                 1.00   0.00  0.00  0.00  0.00  1.00  0.00  0.00  0.20  0.00
  WSL2868                 1.00   0.00  0.00  0.00  0.98  0.02  0.00  0.00  0.88  0.00
  WSL348                  1.00   0.00  0.00  0.00  1.00  0.00  0.00  0.00  0.01  0.00
  WSL175                  1.00   0.00  0.00  0.00  0.99  0.01  0.00  0.00  0.00  0.00
  WSL1467                 1.00   0.00  0.00  0.00  1.00  0.00  0.00  0.00  0.06  0.00
  WSL1473                 1.00   0.00  0.00  0.00  1.00  0.00  0.00  0.00  0.05  0.00
  XRpipe                  1.00   0.00  0.00  0.00  1.00  0.00  0.00  0.00  0.01  0.00
  8                       1.00   1.00  0.00  0.00  0.00  0.00  0.00  0.00  0.00  0.00
  19                      1.00   1.00  0.00  0.00  0.00  0.00  0.00  0.00  0.00  0.00
  17                      1.00   1.00  0.00  0.00  0.00  0.00  0.00  0.00  0.00  0.00
  4                       1.00   1.00  0.00  0.00  0.00  0.00  0.00  0.00  0.00  0.00
  2                       1.00   0.00  0.00  0.00  0.00  1.00  0.00  0.00  0.19  0.00
  
  
  *************************
  Conduit Surcharge Summary
  *************************
  
  ----------------------------------------------------------------------------
                                                           Hours        Hours 
                         --------- Hours Full --------   Above Full   Capacity
  Conduit                Both Ends  Upstream  Dnstream   Normal Flow   Limited
  ----------------------------------------------------------------------------
  WSL49                       0.01      0.01      0.01      0.75         0.01
  WSL1472                     0.01      0.01      0.01      0.42         0.01
  WSL1475                     0.01      0.01      0.01      0.44         0.01
  WSL2013                     0.01      0.01      0.01      0.45         0.01
  WSL2294                     0.01      0.01      0.01      0.62         0.01
  WSL2295                     0.01      0.01      0.01      1.07         0.01
  WSL2298                     0.01      0.01      0.01      1.20         0.01
  WSL2441                     0.01      0.01      0.01      0.06         0.01
  WSL2447                     0.01      0.01      0.01      0.95         0.01
  WSL2451                     0.01      0.01      0.01      1.14         0.01
  WSL2478                     0.01      0.01      0.01      0.01         0.01
  WSL2480                     0.01      0.01      0.01      0.50         0.01
  WSL348                      3.87      3.87      3.88      0.01         0.01
  WSL175                      3.88      3.88      3.88      2.44         2.53
  XRpipe                      3.88      3.88      3.96      0.01         0.01
  
  
  ***************
  Pumping Summary
  ***************
  
  ---------------------------------------------------------------------------------------------------------
                                                  Min       Avg       Max     Total     Power    % Time Off
                        Percent   Number of      Flow      Flow      Flow    Volume     Usage    Pump Curve
  Pump                 Utilized   Start-Ups       MLD       MLD       MLD  10^6 ltr     Kw-hr    Low   High
  ---------------------------------------------------------------------------------------------------------
  XR-Pump-1               96.32           1      0.00      8.12      8.12     1.303      6.68    0.0    0.0
  XR-Pump-3               91.28          18      0.00      8.12      8.12     1.235      6.18    0.0    0.0
  XR-Pump-2               96.18           1      0.00      8.12      8.12     1.301      6.67    0.0    0.0
  XR-Pump-4               63.04          13      0.00      8.12      8.12     0.853      3.33    0.0    0.0
  CC-Pump-1               31.01           7      0.00     17.28     17.28     0.893      2.09    0.0    0.0
  CC-Pump-2                0.00           0      0.00      0.00      0.00     0.000      0.00    0.0    0.0
  JK-Pump-1                0.00           0      0.00      0.00      0.00     0.000      0.00    0.0    0.0
  JK-Pump-2                0.00           0      0.00      0.00      0.00     0.000      0.00    0.0    0.0
  
  
  ***************************
  Link Pollutant Load Summary
  ***************************
  
  ------------------------------------------------------------------------------------------
                                 COD         NH3-N            TN            TP            SS
  Link                            kg            kg            kg            kg            kg
  ------------------------------------------------------------------------------------------
  WSL49                     1454.973         0.000         0.000         0.000         0.000
  WSL1465                    698.076         0.000         0.000         0.000         0.000
  WSL1472                   1361.526         0.000         0.000         0.000         0.000
  WSL1475                   1473.460         0.000         0.000         0.000         0.000
  WSL1476                     92.070         0.000         0.000         0.000         0.000
  WSL1477                     90.299         0.000         0.000         0.000         0.000
  WSL1490                    684.991         0.000         0.000         0.000         0.000
  WSL1491                    688.813         0.000         0.000         0.000         0.000
  WSL1492                    694.856         0.000         0.000         0.000         0.000
  WSL1507                      0.773         0.000         0.000         0.000         0.000
  WSL1508                     56.403         0.000         0.000         0.000         0.000
  WSL1512                     56.702         0.000         0.000         0.000         0.000
  WSL1513                     58.007         0.000         0.000         0.000         0.000
  WSL1515                    656.454         0.000         0.000         0.000         0.000
  WSL1516                     90.933         0.000         0.000         0.000         0.000
  WSL1518                     87.957         0.000         0.000         0.000         0.000
  WSL1519                     88.444         0.000         0.000         0.000         0.000
  WSL1521                     89.409         0.000         0.000         0.000         0.000
  WSL1543                     88.144         0.000         0.000         0.000         0.000
  WSL1961                    672.924         0.000         0.000         0.000         0.000
  WSL1964                    681.387         0.000         0.000         0.000         0.000
  WSL2010                    403.816         0.000         0.000         0.000         0.000
  WSL2011                    408.865         0.000         0.000         0.000         0.000
  WSL2012                    414.161         0.000         0.000         0.000         0.000
  WSL2013                    435.178         0.000         0.000         0.000         0.000
  WSL2014                    546.150         0.000         0.000         0.000         0.000
  WSL2015                    547.187         0.000         0.000         0.000         0.000
  WSL2016                    608.177         0.000         0.000         0.000         0.000
  WSL2017                    610.237         0.000         0.000         0.000         0.000
  WSL2018                    649.521         0.000         0.000         0.000         0.000
  WSL2019                    651.219         0.000         0.000         0.000         0.000
  WSL2028                    399.272         0.000         0.000         0.000         0.000
  WSL2029                    615.029         0.000         0.000         0.000         0.000
  WSL2038                     37.110         0.000         0.000         0.000         0.000
  WSL2039                     46.276         0.000         0.000         0.000         0.000
  WSL2041                     41.704         0.000         0.000         0.000         0.000
  WSL2294                    379.862         0.000         0.000         0.000         0.000
  WSL2295                    380.675         0.000         0.000         0.000         0.000
  WSL2296                    389.674         0.000         0.000         0.000         0.000
  WSL2297                    392.836         0.000         0.000         0.000         0.000
  WSL2298                    384.146         0.000         0.000         0.000         0.000
  WSL2301                    394.003         0.000         0.000         0.000         0.000
  WSL2302                    398.800         0.000         0.000         0.000         0.000
  WSL2441                    379.189         0.000         0.000         0.000         0.000
  WSL2442                    251.800         0.000         0.000         0.000         0.000
  WSL2443                    250.387         0.000         0.000         0.000         0.000
  WSL2444                    247.217         0.000         0.000         0.000         0.000
  WSL2446                    245.211         0.000         0.000         0.000         0.000
  WSL2447                    241.967         0.000         0.000         0.000         0.000
  WSL2448                    238.470         0.000         0.000         0.000         0.000
  WSL2449                    234.844         0.000         0.000         0.000         0.000
  WSL2450                    232.417         0.000         0.000         0.000         0.000
  WSL2451                    231.143         0.000         0.000         0.000         0.000
  WSL2452                    229.647         0.000         0.000         0.000         0.000
  WSL2454                    225.706         0.000         0.000         0.000         0.000
  WSL2478                    224.505         0.000         0.000         0.000         0.000
  WSL2479                    198.314         0.000         0.000         0.000         0.000
  WSL2480                    195.494         0.000         0.000         0.000         0.000
  WSL2482                    191.580         0.000         0.000         0.000         0.000
  WSL2484                    170.888         0.000         0.000         0.000         0.000
  WSL2493                    254.576         0.000         0.000         0.000         0.000
  WSL2867                    657.226         0.000         0.000         0.000         0.000
  WSL2868                    660.783         0.000         0.000         0.000         0.000
  WSL348                     987.829         0.000         0.000         0.000         0.000
  WSL175                     994.547         0.000         0.000         0.000         0.000
  WSL1467                   1358.048         0.000         0.000         0.000         0.000
  WSL1473                   1364.484         0.000         0.000         0.000         0.000
  XRpipe                    1007.597         0.000         0.000         0.000         0.000
  8                            0.000         0.000         0.000         0.000         0.000
  19                           0.000         0.000         0.000         0.000         0.000
  17                           0.000         0.000         0.000         0.000         0.000
  4                            0.000         0.000         0.000         0.000         0.000
  2                         1484.089         0.000         0.000         0.000         0.000
  XR-Pump-1                  186.749         0.000         0.000         0.000         0.000
  XR-Pump-3                  175.372         0.000         0.000         0.000         0.000
  XR-Pump-2                  186.435         0.000         0.000         0.000         0.000
  XR-Pump-4                  112.610         0.000         0.000         0.000         0.000
  CC-Pump-1                  126.423         0.000         0.000         0.000         0.000
  CC-Pump-2                    0.000         0.000         0.000         0.000         0.000
  JK-Pump-1                    0.000         0.000         0.000         0.000         0.000
  JK-Pump-2                    0.000         0.000         0.000         0.000         0.000
  

  Analysis begun on:  Wed Mar 20 15:01:54 2019
  Analysis ended on:  Wed Mar 20 15:01:54 2019
  Total elapsed time: < 1 sec