
  EPA STORM WATER MANAGEMENT MODEL - VERSION 5.1 (Build 5.2.0.dev1)
  --------------------------------------------------------------

  
  *********************************************************
  NOTE: The summary statistics displayed in this report are
  based on results found at every computational time step,  
  not just on results from each reporting time step.
  *********************************************************
  
  ****************
  Analysis Options
  ****************
  Flow Units ............... MLD
  Process Models:
    Rainfall/Runoff ........ YES
    RDII ................... NO
    Snowmelt ............... NO
    Groundwater ............ NO
    Flow Routing ........... YES
    Ponding Allowed ........ NO
    Water Quality .......... YES
  Infiltration Method ...... GREEN_AMPT
  Flow Routing Method ...... DYNWAVE
  Starting Date ............ 08/28/2015 08:00:00
  Ending Date .............. 08/28/2015 12:00:00
  Antecedent Dry Days ...... 4.0
  Report Time Step ......... 00:01:00
  Wet Time Step ............ 00:01:00
  Dry Time Step ............ 00:01:00
  Routing Time Step ........ 5.00 sec
  Variable Time Step ....... YES
  Maximum Trials ........... 8
  Number of Threads ........ 1
  Head Tolerance ........... 0.001500 m
  
  
  **************************        Volume         Depth
  Runoff Quantity Continuity     hectare-m            mm
  **************************     ---------       -------
  Total Precipitation ......         6.980        24.747
  Evaporation Loss .........         0.000         0.000
  Infiltration Loss ........         2.844        10.085
  Surface Runoff ...........         2.031         7.202
  Final Storage ............         2.108         7.474
  Continuity Error (%) .....        -0.056
  
  
  **************************           COD         NH3-N            TN            TP            SS
  Runoff Quality Continuity             kg            kg            kg            kg            kg
  **************************    ----------    ----------    ----------    ----------    ----------
  Initial Buildup ..........     13074.240         0.000         0.000         0.000         0.000
  Surface Buildup ..........       104.307         0.000         0.000         0.000         0.000
  Wet Deposition ...........         0.000         0.000         0.000         0.000         0.000
  Sweeping Removal .........         0.000         0.000         0.000         0.000         0.000
  Infiltration Loss ........       247.401         0.000         0.000         0.000         0.000
  BMP Removal ..............         0.000         0.000         0.000         0.000         0.000
  Surface Runoff ...........      4067.033         0.000         0.000         0.000         0.000
  Remaining Buildup ........      8861.286         0.000         0.000         0.000         0.000
  Continuity Error (%) .....         0.021         0.000         0.000         0.000         0.000
  
  
  **************************        Volume        Volume
  Flow Routing Continuity        hectare-m      10^6 ltr
  **************************     ---------     ---------
  Dry Weather Inflow .......         0.000         0.000
  Wet Weather Inflow .......         2.026        20.260
  Groundwater Inflow .......         0.000         0.000
  RDII Inflow ..............         0.000         0.000
  External Inflow ..........         0.561         5.611
  External Outflow .........         1.242        12.417
  Flooding Loss ............         1.224        12.243
  Evaporation Loss .........         0.000         0.000
  Exfiltration Loss ........         0.000         0.000
  Initial Stored Volume ....         0.000         0.000
  Final Stored Volume ......         0.122         1.222
  Continuity Error (%) .....        -0.044
  
  
  **************************           COD         NH3-N            TN            TP            SS
  Quality Routing Continuity            kg            kg            kg            kg            kg
  **************************    ----------    ----------    ----------    ----------    ----------
  Dry Weather Inflow .......         0.000         0.000         0.000         0.000         0.000
  Wet Weather Inflow .......      4060.256         0.000         0.000         0.000         0.000
  Groundwater Inflow .......         0.000         0.000         0.000         0.000         0.000
  RDII Inflow ..............         0.000         0.000         0.000         0.000         0.000
  External Inflow ..........       937.009         0.000         0.000         0.000         0.000
  External Outflow .........      2429.704         0.000         0.000         0.000         0.000
  Flooding Loss ............      2399.733         0.000         0.000         0.000         0.000
  Exfiltration Loss ........         0.000         0.000         0.000         0.000         0.000
  Mass Reacted .............         0.000         0.000         0.000         0.000         0.000
  Initial Stored Mass ......         0.000         0.000         0.000         0.000         0.000
  Final Stored Mass ........       167.942         0.000         0.000         0.000         0.000
  Continuity Error (%) .....        -0.002         0.000         0.000         0.000         0.000
  
  
  *************************
  Highest Continuity Errors
  *************************
  Node WS02003099 (1.09%)
  
  
  ***************************
  Time-Step Critical Elements
  ***************************
  Link WSL2448 (48.27%)
  Link WSL1477 (30.20%)
  Link WSL1516 (5.32%)
  
  
  ********************************
  Highest Flow Instability Indexes
  ********************************
  Link WSL1477 (68)
  Link WSL1516 (64)
  Link WSL1515 (27)
  Link WSL2867 (22)
  Link WSL1475 (19)
  
  
  *************************
  Routing Time Step Summary
  *************************
  Minimum Time Step           :     0.50 sec
  Average Time Step           :     2.58 sec
  Maximum Time Step           :     5.00 sec
  Percent in Steady State     :     0.00
  Average Iterations per Step :     3.23
  Percent Not Converging      :    10.69
  
  
  ***************************
  Subcatchment Runoff Summary
  ***************************
  
  --------------------------------------------------------------------------------------------------------
                            Total      Total      Total      Total      Total       Total     Peak  Runoff
                           Precip      Runon       Evap      Infil     Runoff      Runoff   Runoff   Coeff
  Subcatchment                 mm         mm         mm         mm         mm    10^6 ltr      MLD
  --------------------------------------------------------------------------------------------------------
  1                         24.75      34.41       0.00      11.22      31.61        0.38     7.01   0.534
  2                         24.75       0.00       0.00       8.86       9.32        0.31     6.38   0.377
  3                         24.75       0.00       0.00       8.94       8.77        0.45     8.99   0.354
  4                         24.75       0.00       0.00       8.81       9.65        0.26     5.25   0.390
  5                         24.75      22.86       0.00      10.81      23.74        0.40     7.74   0.499
  6                         24.75       0.00       0.00       8.93       8.81        0.44     8.75   0.356
  7                         24.75       0.00       0.00      10.64       7.66       12.26   218.23   0.310
  8                         24.75       0.00       0.00       8.91       9.01        0.38     7.71   0.364
  9                         24.75       8.91       0.00       9.86      13.43        0.51     9.90   0.399
  17                        24.75       0.00       0.00       8.88       9.20        0.34     6.85   0.372
  18                        24.75       0.00       0.00       8.91       8.98        0.39     7.86   0.363
  28                        24.75      31.62       0.00      11.44      26.35        0.69    12.50   0.467
  29                        24.75      13.37       0.00       9.99      16.36        0.39     7.52   0.429
  30                        24.75      35.21       0.00      11.34      34.80        0.32     6.22   0.580
  31                        24.75       0.00       0.00       8.87       9.25        0.33     6.66   0.374
  33                        24.75       0.00       0.00       8.53      11.37        0.10     2.10   0.459
  34                        24.75      20.05       0.00      10.68      21.31        0.44     8.49   0.476
  35                        24.75       0.00       0.00       8.84       9.47        0.29     5.85   0.382
  36                        24.75      19.15       0.00      10.88      17.21        1.02    18.84   0.392
  39                        24.75       0.00       0.00       8.86       9.30        0.32     6.45   0.376
  40                        24.75       5.00       0.00       9.46      11.45        0.45     8.86   0.385
  41                        24.75       0.00       0.00       8.74      10.11        0.20     4.06   0.409
  42                        24.75       0.00       0.00       8.78       9.87        0.23     4.63   0.399
  43                        24.75       0.00       0.00       8.25      12.84        0.05     1.02   0.519
  44                        24.75     285.48       0.00      17.47     252.95        0.94    16.62   0.815
  45                        24.75       0.00       0.00       8.58      11.10        0.11     2.42   0.448
  46                        24.75      16.14       0.00      10.31      18.67        0.40     7.72   0.456
  47                        24.75       0.00       0.00       8.60      10.98        0.12     2.57   0.444
  48                        24.75       7.69       0.00       9.48      14.70        0.23     4.69   0.453
  55                        24.75      11.54       0.00       9.58      18.70        0.16     3.17   0.515
  56                        24.75      17.69       0.00      10.43      19.55        0.42     8.04   0.461
  57                        24.75       0.00       0.00       8.93       8.80        0.44     8.84   0.355
  59                        24.75       0.00       0.00       8.52      11.43        0.10     2.04   0.462
  60                        24.75      24.98       0.00      10.33      29.75        0.15     3.11   0.598
  61                        24.75       0.00       0.00       9.11       7.34        1.32    25.79   0.296
  62                        24.75       0.00       0.00       9.11       7.28        1.38    27.00   0.294
  64                        24.75       0.00       0.00       8.62      10.85        0.13     2.74   0.439
  
  
  ****************************
  Subcatchment Washoff Summary
  ****************************
  
  ------------------------------------------------------------------------------------------
                                 COD         NH3-N            TN            TP            SS
  Subcatchment                    kg            kg            kg            kg            kg
  ------------------------------------------------------------------------------------------
  1                           69.153         0.000         0.000         0.000         0.000
  2                            0.000         0.000         0.000         0.000         0.000
  3                            0.000         0.000         0.000         0.000         0.000
  4                           53.483         0.000         0.000         0.000         0.000
  5                          114.283         0.000         0.000         0.000         0.000
  6                           86.856         0.000         0.000         0.000         0.000
  7                         2360.794         0.000         0.000         0.000         0.000
  8                           77.058         0.000         0.000         0.000         0.000
  9                          140.266         0.000         0.000         0.000         0.000
  17                          68.824         0.000         0.000         0.000         0.000
  18                          78.476         0.000         0.000         0.000         0.000
  28                         236.677         0.000         0.000         0.000         0.000
  29                         122.763         0.000         0.000         0.000         0.000
  30                          83.477         0.000         0.000         0.000         0.000
  31                          67.055         0.000         0.000         0.000         0.000
  33                          22.058         0.000         0.000         0.000         0.000
  34                         129.448         0.000         0.000         0.000         0.000
  35                          59.232         0.000         0.000         0.000         0.000
  36                         333.147         0.000         0.000         0.000         0.000
  39                          64.976         0.000         0.000         0.000         0.000
  40                         113.080         0.000         0.000         0.000         0.000
  41                          41.735         0.000         0.000         0.000         0.000
  42                          47.387         0.000         0.000         0.000         0.000
  43                          10.688         0.000         0.000         0.000         0.000
  44                         308.572         0.000         0.000         0.000         0.000
  45                          25.259         0.000         0.000         0.000         0.000
  46                         124.978         0.000         0.000         0.000         0.000
  47                          26.815         0.000         0.000         0.000         0.000
  48                          64.308         0.000         0.000         0.000         0.000
  55                          44.341         0.000         0.000         0.000         0.000
  56                         128.433         0.000         0.000         0.000         0.000
  57                          87.681         0.000         0.000         0.000         0.000
  59                          21.443         0.000         0.000         0.000         0.000
  60                          41.645         0.000         0.000         0.000         0.000
  61                         238.797         0.000         0.000         0.000         0.000
  62                         249.072         0.000         0.000         0.000         0.000
  64                          28.534         0.000         0.000         0.000         0.000
  ------------------------------------------------------------------------------------------
  System                    5770.797         0.000         0.000         0.000         0.000
  
  
  ******************
  Node Depth Summary
  ******************
  
  ---------------------------------------------------------------------------------
                                 Average  Maximum  Maximum  Time of Max    Reported
                                   Depth    Depth      HGL   Occurrence   Max Depth
  Node                 Type       Meters   Meters   Meters  days hr:min      Meters
  ---------------------------------------------------------------------------------
  WS01000070           JUNCTION     0.00     0.00     0.00     0  00:00        0.00
  WS01000323           JUNCTION     0.00     0.00     0.00     0  00:00        0.00
  WS01000533           JUNCTION     0.00     0.00     6.86     0  00:00        0.00
  WS01005172           JUNCTION     0.00     0.00     0.00     0  00:00        0.00
  WS01005181           JUNCTION     0.00     0.00     0.00     0  00:00        0.00
  WS01009841           JUNCTION     0.00     0.00     0.00     0  00:00        0.00
  WS02000078           JUNCTION     0.00     0.00     0.00     0  00:00        0.00
  WS02000112           JUNCTION     0.00     0.00     0.00     0  00:00        0.00
  WS02000136           JUNCTION     0.00     0.00     0.00     0  00:00        0.00
  WS02001211           JUNCTION     0.45     0.57     5.41     0  03:07        0.57
  WS02001212           JUNCTION     0.41     0.60     5.40     0  03:10        0.59
  WS02001213           JUNCTION     0.51     0.71     5.41     0  03:10        0.71
  WS02003059           JUNCTION     0.50     0.73     5.38     0  03:09        0.73
  WS02003060           JUNCTION     0.57     0.82     5.37     0  03:08        0.81
  WS02003066           JUNCTION     0.25     0.44     5.74     0  03:04        0.44
  WS02003067           JUNCTION     0.43     0.72     6.04     0  03:04        0.72
  WS02003071           JUNCTION     0.63     0.87     5.27     0  03:12        0.86
  WS02003072           JUNCTION     0.54     0.79     5.16     0  03:12        0.78
  WS02003073           JUNCTION     0.61     0.96     5.20     0  03:18        0.90
  WS02003076           JUNCTION     0.56     0.85     5.08     0  03:15        0.78
  WS02003077           JUNCTION     0.09     0.15     5.16     0  03:03        0.15
  WS02003078           JUNCTION     0.06     0.10     7.00     0  02:54        0.10
  WS02003079           JUNCTION     0.19     0.32     7.23     0  03:03        0.32
  WS02003093           JUNCTION     0.06     0.15     7.49     0  03:01        0.15
  WS02003094           JUNCTION     0.16     0.27     7.49     0  03:01        0.27
  WS02003098           JUNCTION     0.11     0.21     7.38     0  03:02        0.21
  WS02003099           JUNCTION     0.21     0.35     7.39     0  03:02        0.35
  WS02003102           JUNCTION     0.19     0.33     7.36     0  03:01        0.33
  WS02003103           JUNCTION     0.21     0.36     7.33     0  03:02        0.36
  WS02003104           JUNCTION     0.21     0.35     7.31     0  03:02        0.35
  WS02003106           JUNCTION     0.21     0.34     7.27     0  03:02        0.34
  WS02004050           JUNCTION     0.38     0.54     4.76     0  03:08        0.53
  WS02004053           JUNCTION     0.00     0.00     0.00     0  00:00        0.00
  WS02004136           JUNCTION     0.17     0.18     6.91     0  01:13        0.18
  WS02004139           JUNCTION     0.37     0.46     5.42     0  03:05        0.46
  WS02004401           JUNCTION     0.43     0.73     6.73     0  03:05        0.73
  WS02004402           JUNCTION     0.45     0.75     6.71     0  03:04        0.75
  WS02004403           JUNCTION     0.44     0.75     6.68     0  03:04        0.75
  WS02004404           JUNCTION     0.52     0.83     6.68     0  03:04        0.83
  WS02004405           JUNCTION     0.52     0.83     6.67     0  03:04        0.82
  WS02004406           JUNCTION     0.50     0.80     6.63     0  03:03        0.80
  WS02004407           JUNCTION     0.48     0.76     6.56     0  03:03        0.76
  WS02004409           JUNCTION     0.46     0.73     6.50     0  03:05        0.73
  WS02004410           JUNCTION     0.44     0.70     6.42     0  03:05        0.70
  WS02004411           JUNCTION     0.41     0.66     6.34     0  03:04        0.66
  WS02004412           JUNCTION     0.36     0.59     6.23     0  03:04        0.58
  WS02004413           JUNCTION     0.38     0.63     6.10     0  03:04        0.62
  WS02004997           JUNCTION     5.78     6.68     8.29     0  02:00        6.68
  WS02005192           JUNCTION     0.20     0.32     8.19     0  03:01        0.32
  WS02005193           JUNCTION     0.22     0.34     8.16     0  03:01        0.34
  WS02005196           JUNCTION     0.21     0.33     8.18     0  03:01        0.33
  WS02006109           JUNCTION     0.47     0.72     7.34     0  03:04        0.72
  WS02006110           JUNCTION     0.43     0.65     7.25     0  03:02        0.65
  WS02006111           JUNCTION     0.24     0.39     6.97     0  03:01        0.39
  WS02006112           JUNCTION     0.45     0.72     6.84     0  03:04        0.72
  WS02006113           JUNCTION     0.37     0.55     7.14     0  03:02        0.55
  WS02006115           JUNCTION     0.41     0.68     6.78     0  03:04        0.68
  WS02006116           JUNCTION     0.44     0.72     6.76     0  03:05        0.72
  WS02006183           JUNCTION     0.00     0.00     0.00     0  00:00        0.00
  WS02006228           JUNCTION     0.48     0.76     7.41     0  03:04        0.76
  WS02006229           JUNCTION     0.45     0.73     7.42     0  03:04        0.73
  WS02006230           JUNCTION     0.43     0.74     7.49     0  03:04        0.74
  WS02006231           JUNCTION     0.34     0.64     7.54     0  03:04        0.64
  WS02006232           JUNCTION     0.30     0.54     7.57     0  03:04        0.54
  WS02006234           JUNCTION     0.28     0.46     7.62     0  03:04        0.46
  WS02006235           JUNCTION     0.33     0.52     7.69     0  03:04        0.52
  WS02006238           JUNCTION     0.34     0.52     7.70     0  03:04        0.52
  WS02006239           JUNCTION     0.36     0.56     7.77     0  03:04        0.56
  WS02006242           JUNCTION     0.38     0.59     7.89     0  03:03        0.59
  WS02006240           JUNCTION     0.33     0.52     7.81     0  03:04        0.52
  WS02006243           JUNCTION     0.32     0.51     7.93     0  03:03        0.51
  WS02006245           JUNCTION     0.32     0.50     7.99     0  03:02        0.50
  WS02006247           JUNCTION     0.34     0.53     8.04     0  03:02        0.53
  WS02006248           JUNCTION     0.29     0.47     8.06     0  03:02        0.47
  WS02006249           JUNCTION     0.32     0.49     8.09     0  03:02        0.49
  WS02006251           JUNCTION     0.31     0.48     8.15     0  03:02        0.48
  WS02006253           JUNCTION     0.23     0.36     8.16     0  03:01        0.36
  WS02618401           JUNCTION     0.00     0.00     0.00     0  00:00        0.00
  WS8802               JUNCTION     0.00     0.00     4.38     0  00:00        0.00
  WSA1649              JUNCTION     0.00     0.00     0.00     0  00:00        0.00
  WSF200               JUNCTION     0.24     0.45     5.55     0  03:08        0.42
  XR-Inflow            JUNCTION     5.64     6.55     8.36     0  01:49        6.55
  WS02004114           JUNCTION     5.76     6.65     8.25     0  02:00        6.65
  outfall-2            OUTFALL      0.00     0.00     7.00     0  00:00        0.00
  outfall-5            OUTFALL      0.00     0.00     7.67     0  00:00        0.00
  outfall-14           OUTFALL      0.00     0.00     7.66     0  00:00        0.00
  outfall-16           OUTFALL      0.00     0.00     8.39     0  00:00        0.00
  12                   OUTFALL      0.38     0.53     0.53     0  03:10        0.53
  XR-storage           STORAGE      6.83     7.72     8.22     0  01:35        7.72
  CC-storage           STORAGE      3.87     5.63     8.81     0  02:57        5.63
  JK-storage           STORAGE      4.11     4.80     7.80     0  01:36        4.80
  
  
  *******************
  Node Inflow Summary
  *******************
  
  -------------------------------------------------------------------------------------------------
                                  Maximum  Maximum                  Lateral       Total        Flow
                                  Lateral    Total  Time of Max      Inflow      Inflow     Balance
                                   Inflow   Inflow   Occurrence      Volume      Volume       Error
  Node                 Type           MLD      MLD  days hr:min    10^6 ltr    10^6 ltr     Percent
  -------------------------------------------------------------------------------------------------
  WS01000070           JUNCTION      0.00     0.00     0  00:00           0           0       0.000 ltr
  WS01000323           JUNCTION      0.00     0.00     0  00:00           0           0       0.000 ltr
  WS01000533           JUNCTION      0.00     0.00     0  00:00           0           0       0.000 ltr
  WS01005172           JUNCTION      0.00     0.00     0  00:00           0           0       0.000 ltr
  WS01005181           JUNCTION      0.00     0.00     0  00:00           0           0       0.000 ltr
  WS01009841           JUNCTION      0.00     0.00     0  00:00           0           0       0.000 ltr
  WS02000078           JUNCTION      0.00     0.00     0  00:00           0           0       0.000 ltr
  WS02000112           JUNCTION      0.00     0.00     0  00:00           0           0       0.000 ltr
  WS02000136           JUNCTION      0.00     0.00     0  00:00           0           0       0.000 ltr
  WS02001211           JUNCTION      0.25    37.19     0  03:06      0.0407        4.92       0.541
  WS02001212           JUNCTION      0.21    39.70     0  03:23      0.0346        4.93       0.302
  WS02001213           JUNCTION      0.30    50.88     0  03:20      0.0489        4.96       0.425
  WS02003059           JUNCTION      0.23    40.57     0  03:23      0.0378        4.98       0.552
  WS02003060           JUNCTION      0.16   142.44     0  03:07      0.0252        11.4       0.385
  WS02003066           JUNCTION      0.08   130.80     0  03:03      0.0122         6.4       0.181
  WS02003067           JUNCTION      0.26   101.01     0  03:06      0.0395         6.4       0.180
  WS02003071           JUNCTION      0.35   136.18     0  03:05      0.0538        11.4       0.394
  WS02003072           JUNCTION      0.24   137.89     0  03:08      0.0382        11.4       0.247
  WS02003073           JUNCTION      0.07   154.90     0  03:09     0.00978        12.3       0.208
  WS02003076           JUNCTION      0.72   180.32     0  03:19        0.12        12.4       0.132
  WS02003077           JUNCTION      0.04    16.85     0  02:54      0.0059       0.917       0.125
  WS02003078           JUNCTION      0.03    19.58     0  02:54     0.00419       0.911      -0.045
  WS02003079           JUNCTION      0.04    16.74     0  03:02     0.00561       0.909       0.249
  WS02003093           JUNCTION      0.02     0.07     0  02:59     0.00306     0.00379       7.073
  WS02003094           JUNCTION      9.95     9.95     0  03:01       0.516        0.52       0.823
  WS02003098           JUNCTION      0.02     9.78     0  03:01     0.00293       0.518       0.542
  WS02003099           JUNCTION      0.07     9.68     0  03:02      0.0109       0.526       1.098
  WS02003102           JUNCTION      7.74    16.92     0  03:01       0.386       0.906       0.556
  WS02003103           JUNCTION      0.02    16.78     0  03:01     0.00239       0.903       0.387
  WS02003104           JUNCTION      0.02    16.73     0  03:01     0.00302       0.903       0.328
  WS02003106           JUNCTION      0.05    16.74     0  03:02     0.00727       0.907       0.390
  WS02004050           JUNCTION      0.72   179.11     0  03:11       0.119        12.5       0.567
  WS02004053           JUNCTION      0.00     0.00     0  00:00           0           0       0.000 ltr
  WS02004136           JUNCTION      0.44    32.92     0  01:12      0.0703        4.84       0.067
  WS02004139           JUNCTION      0.38    33.58     0  01:13      0.0619         4.9       0.371
  WS02004401           JUNCTION      0.05    67.48     0  03:04     0.00897        4.48       0.323
  WS02004402           JUNCTION      0.22    67.75     0  03:06      0.0335        4.49       0.295
  WS02004403           JUNCTION      0.23    68.08     0  03:05      0.0349        4.52       0.259
  WS02004404           JUNCTION      0.24    68.37     0  03:05      0.0365        4.54       0.217
  WS02004405           JUNCTION      5.32    72.36     0  03:05       0.268         4.8       0.306
  WS02004406           JUNCTION     12.61    83.78     0  03:05       0.712         5.5       0.410
  WS02004407           JUNCTION      0.11    83.95     0  03:04      0.0171        5.49       0.361
  WS02004409           JUNCTION      7.92    91.00     0  03:04       0.437        5.91       0.296
  WS02004410           JUNCTION      0.15    91.16     0  03:04      0.0226        5.91       0.296
  WS02004411           JUNCTION      0.25    91.67     0  03:05      0.0379        5.93       0.259
  WS02004412           JUNCTION      8.84    98.83     0  03:05       0.449        6.37       0.199
  WS02004413           JUNCTION      0.11    99.41     0  03:03      0.0172        6.37       0.180
  WS02004997           JUNCTION      0.42    63.57     0  02:00      0.0693        7.92       0.492
  WS02005192           JUNCTION      8.93     8.93     0  03:01       0.457       0.457       0.150
  WS02005193           JUNCTION      0.09     9.05     0  03:01      0.0146       0.499       0.262
  WS02005196           JUNCTION      0.12     9.01     0  03:01       0.019       0.478       0.292
  WS02006109           JUNCTION      0.08    59.19     0  03:05      0.0135        3.96       0.428
  WS02006110           JUNCTION      0.08    59.31     0  03:05      0.0132        3.96       0.391
  WS02006111           JUNCTION      0.24    67.16     0  03:02      0.0366        4.44       0.151
  WS02006112           JUNCTION      0.18    67.35     0  03:03      0.0273        4.46       0.344
  WS02006113           JUNCTION      9.13    66.92     0  03:02       0.473        4.42       0.267
  WS02006115           JUNCTION      0.08    67.26     0  03:04      0.0134        4.46       0.359
  WS02006116           JUNCTION      0.24    67.46     0  03:04       0.036        4.48       0.338
  WS02006183           JUNCTION      0.00     0.00     0  00:00           0           0       0.000 ltr
  WS02006228           JUNCTION     16.77    59.09     0  03:04       0.961        3.96       0.326
  WS02006229           JUNCTION      0.13    42.41     0  03:05        0.02        3.01       0.366
  WS02006230           JUNCTION      0.07    42.27     0  03:04      0.0116        3.01       0.387
  WS02006231           JUNCTION      0.13    42.17     0  03:04      0.0205           3       0.226
  WS02006232           JUNCTION      6.46    42.10     0  03:03       0.327        2.99       0.196
  WS02006234           JUNCTION      0.14    36.90     0  03:04      0.0216        2.66       0.197
  WS02006235           JUNCTION      0.14    36.78     0  03:04      0.0223        2.65       0.120
  WS02006238           JUNCTION      0.15    36.68     0  03:04      0.0235        2.63       0.165
  WS02006239           JUNCTION      0.11    36.60     0  03:03      0.0174        2.61       0.266
  WS02006242           JUNCTION      0.08    36.61     0  03:02      0.0129         2.6       0.316
  WS02006240           JUNCTION      0.06    36.58     0  03:03     0.00992         2.6       0.239
  WS02006243           JUNCTION      0.17    36.62     0  03:02      0.0269        2.59       0.196
  WS02006245           JUNCTION      0.07    36.53     0  03:02      0.0113        2.57       0.152
  WS02006247           JUNCTION      7.15    36.50     0  03:01       0.406        2.56       0.150
  WS02006248           JUNCTION      0.12    29.62     0  03:02      0.0192        2.16       0.086
  WS02006249           JUNCTION      0.19    29.54     0  03:01      0.0286        2.14       0.150
  WS02006251           JUNCTION      3.22    29.45     0  03:01       0.165        2.11       0.111
  WS02006253           JUNCTION      0.11    26.38     0  03:01      0.0173        1.96       0.028
  WS02618401           JUNCTION      0.00     0.00     0  00:00           0           0       0.000 ltr
  WS8802               JUNCTION      0.00     0.00     0  00:00           0           0       0.000 ltr
  WSA1649              JUNCTION      0.00     0.00     0  00:00           0           0       0.000 ltr
  WSF200               JUNCTION      0.14   122.51     0  03:08      0.0216        6.41      -0.011
  XR-Inflow            JUNCTION    235.79   235.79     0  03:01        15.6        15.6       0.155
  WS02004114           JUNCTION      0.57    64.13     0  02:00      0.0916        7.98       0.301
  outfall-2            OUTFALL       0.00     0.00     0  00:00           0           0       0.000 ltr
  outfall-5            OUTFALL       0.00     0.00     0  00:00           0           0       0.000 ltr
  outfall-14           OUTFALL       0.00     0.00     0  00:00           0           0       0.000 ltr
  outfall-16           OUTFALL       0.00     0.00     0  00:00           0           0       0.000 ltr
  12                   OUTFALL       0.00   153.24     0  03:10           0        12.4       0.000
  XR-storage           STORAGE       0.00    64.13     0  02:00           0        7.96       0.587
  CC-storage           STORAGE      27.25    27.25     0  03:01        1.61        1.61       0.000
  JK-storage           STORAGE      27.89    27.89     0  03:01        1.56        1.56      -0.002
  
  
  **********************
  Node Surcharge Summary
  **********************
  
  Surcharging occurs when water rises above the top of the highest conduit.
  ---------------------------------------------------------------------
                                               Max. Height   Min. Depth
                                   Hours       Above Crown    Below Rim
  Node                 Type      Surcharged         Meters       Meters
  ---------------------------------------------------------------------
  WS01000070           JUNCTION        4.00          0.000        0.000
  WS01000323           JUNCTION        4.00          0.000        0.000
  WS01000533           JUNCTION        4.00          0.000        2.147
  WS01005172           JUNCTION        4.00          0.000        0.000
  WS01005181           JUNCTION        4.00          0.000        0.000
  WS01009841           JUNCTION        4.00          0.000        0.000
  WS02000078           JUNCTION        4.00          0.000        0.000
  WS02000112           JUNCTION        4.00          0.000        0.000
  WS02000136           JUNCTION        4.00          0.000        0.000
  WS02004053           JUNCTION        4.00          0.000        0.000
  WS02004997           JUNCTION        3.88          5.784        0.216
  WS02006183           JUNCTION        4.00          0.000        0.000
  WS02618401           JUNCTION        4.00          0.000        0.000
  WS8802               JUNCTION        4.00          0.000        4.942
  WSA1649              JUNCTION        4.00          0.000        0.000
  XR-Inflow            JUNCTION        3.87          5.650        0.000
  WS02004114           JUNCTION        3.88          5.748        0.767
  
  
  *********************
  Node Flooding Summary
  *********************
  
  Flooding refers to all water that overflows a node, whether it ponds or not.
  --------------------------------------------------------------------------
                                                             Total   Maximum
                                 Maximum   Time of Max       Flood    Ponded
                        Hours       Rate    Occurrence      Volume     Depth
  Node                 Flooded       MLD   days hr:min    10^6 ltr    Meters
  --------------------------------------------------------------------------
  XR-Inflow               2.18    172.61      0  03:01       7.686     0.000
  XR-storage              2.42     31.65      0  02:00       3.078     0.000
  CC-storage              0.25      9.96      0  03:01       0.058     0.000
  JK-storage              2.40     27.88      0  03:01       1.422     0.000
  
  
  **********************
  Storage Volume Summary
  **********************
  
  --------------------------------------------------------------------------------------------------
                         Average     Avg  Evap Exfil       Maximum     Max    Time of Max    Maximum
                          Volume    Pcnt  Pcnt  Pcnt        Volume    Pcnt     Occurrence    Outflow
  Storage Unit           1000 m3    Full  Loss  Loss       1000 m3    Full    days hr:min        MLD
  --------------------------------------------------------------------------------------------------
  XR-storage               0.055      88     0     0         0.063     100       0  01:35      32.48
  CC-storage               0.109      69     0     0         0.159     100       0  02:57      17.28
  JK-storage               0.116      86     0     0         0.136     100       0  01:36       0.00
  
  
  ***********************
  Outfall Loading Summary
  ***********************
  
  ---------------------------------------------------------------------------------------------------------------------------------
                         Flow       Avg       Max       Total         Total         Total         Total         Total         Total
                         Freq      Flow      Flow      Volume           COD         NH3-N            TN            TP            SS
  Outfall Node           Pcnt       MLD       MLD    10^6 ltr            kg            kg            kg            kg            kg
  ---------------------------------------------------------------------------------------------------------------------------------
  outfall-2              0.00      0.00      0.00       0.000         0.000         0.000         0.000         0.000         0.000
  outfall-5              0.00      0.00      0.00       0.000         0.000         0.000         0.000         0.000         0.000
  outfall-14             0.00      0.00      0.00       0.000         0.000         0.000         0.000         0.000         0.000
  outfall-16             0.00      0.00      0.00       0.000         0.000         0.000         0.000         0.000         0.000
  12                    99.98     90.04    153.24      12.417      2429.961         0.000         0.000         0.000         0.000
  ---------------------------------------------------------------------------------------------------------------------------------
  System                20.00     90.04    153.24      12.417      2429.961         0.000         0.000         0.000         0.000
  
  
  ********************
  Link Flow Summary
  ********************
  
  -----------------------------------------------------------------------------
                                 Maximum  Time of Max   Maximum    Max/    Max/
                                  |Flow|   Occurrence   |Veloc|    Full    Full
  Link                 Type          MLD  days hr:min     m/sec    Flow   Depth
  -----------------------------------------------------------------------------
  WSL49                CONDUIT    179.61     0  03:19      2.71    2.23    0.71
  WSL1465              CONDUIT     39.45     0  03:07      1.66    0.36    0.76
  WSL1472              CONDUIT    137.68     0  03:08      2.00    1.57    0.68
  WSL1475              CONDUIT    178.39     0  03:11      3.01    1.90    0.48
  WSL1476              CONDUIT     16.77     0  03:03      0.64    0.08    0.60
  WSL1477              CONDUIT     19.56     0  02:54      2.63    0.77    0.35
  WSL1490              CONDUIT     39.49     0  03:23      1.39    0.64    0.58
  WSL1491              CONDUIT     50.60     0  03:20      1.45    0.29    0.64
  WSL1492              CONDUIT     40.35     0  03:23      1.39    0.62    0.70
  WSL1507              CONDUIT      0.18     0  03:02      0.11    0.00    0.26
  WSL1508              CONDUIT      9.77     0  03:01      0.90    0.28    0.30
  WSL1512              CONDUIT      9.63     0  03:02      0.62    0.07    0.28
  WSL1513              CONDUIT      9.82     0  03:03      0.56    0.58    0.43
  WSL1515              CONDUIT    130.73     0  03:03      3.00    1.28    0.46
  WSL1516              CONDUIT     16.82     0  02:54      4.74    0.06    0.21
  WSL1518              CONDUIT     16.77     0  03:01      0.94    0.33    0.43
  WSL1519              CONDUIT     16.71     0  03:02      0.94    0.42    0.43
  WSL1521              CONDUIT     16.71     0  03:02      0.99    0.48    0.41
  WSL1543              CONDUIT     16.72     0  03:01      0.91    0.52    0.44
  WSL1961              CONDUIT     33.20     0  01:13      3.07    0.07    0.32
  WSL1964              CONDUIT     36.95     0  03:06      1.38    0.20    0.42
  WSL2010              CONDUIT     67.89     0  03:05      1.26    0.87    0.75
  WSL2011              CONDUIT     68.17     0  03:05      1.20    0.44    0.79
  WSL2012              CONDUIT     68.42     0  03:05      1.15    1.04    0.83
  WSL2013              CONDUIT     72.41     0  03:05      1.23    1.80    0.81
  WSL2014              CONDUIT     83.86     0  03:04      1.49    1.34    0.78
  WSL2015              CONDUIT     84.01     0  03:05      1.56    1.13    0.74
  WSL2016              CONDUIT     91.04     0  03:04      1.76    1.05    0.72
  WSL2017              CONDUIT     91.47     0  03:05      1.90    1.11    0.68
  WSL2018              CONDUIT     99.31     0  03:03      2.39    0.59    0.61
  WSL2019              CONDUIT    100.80     0  03:06      2.29    0.60    0.67
  WSL2028              CONDUIT     67.57     0  03:06      1.27    0.72    0.74
  WSL2029              CONDUIT     92.05     0  03:05      2.13    1.16    0.62
  WSL2038              CONDUIT      8.91     0  03:01      0.66    0.44    0.54
  WSL2039              CONDUIT      9.01     0  03:01      1.37    0.46    0.58
  WSL2041              CONDUIT      8.96     0  03:01      0.87    0.44    0.56
  WSL2294              CONDUIT     59.23     0  03:05      1.50    1.99    0.86
  WSL2295              CONDUIT     59.39     0  03:05      1.71    2.67    0.75
  WSL2296              CONDUIT     67.20     0  03:03      2.10    0.38    0.69
  WSL2297              CONDUIT     67.18     0  03:04      1.33    1.29    0.70
  WSL2298              CONDUIT     66.96     0  03:02      2.54    3.08    0.59
  WSL2301              CONDUIT     67.27     0  03:04      1.32    0.62    0.70
  WSL2302              CONDUIT     67.42     0  03:04      1.28    0.83    0.73
  WSL2441              CONDUIT     59.11     0  03:05      1.41    1.51    0.93
  WSL2442              CONDUIT     42.30     0  03:05      1.27    1.08    1.00
  WSL2443              CONDUIT     42.20     0  03:04      1.44    0.66    0.96
  WSL2444              CONDUIT     42.06     0  03:04      1.71    0.67    0.85
  WSL2446              CONDUIT     36.93     0  03:05      1.66    0.63    0.72
  WSL2447              CONDUIT     36.78     0  03:04      1.54    1.89    0.70
  WSL2448              CONDUIT     36.66     0  03:04      1.41    1.03    0.74
  WSL2449              CONDUIT     36.56     0  03:04      1.35    1.28    0.77
  WSL2450              CONDUIT     36.51     0  03:03      1.34    0.76    0.77
  WSL2451              CONDUIT     36.52     0  03:03      1.31    2.38    0.79
  WSL2452              CONDUIT     36.54     0  03:02      1.32    0.70    0.78
  WSL2454              CONDUIT     36.48     0  03:02      1.46    0.85    0.72
  WSL2478              CONDUIT     36.47     0  03:02      1.39    1.29    0.74
  WSL2479              CONDUIT     29.62     0  03:02      1.24    0.56    0.72
  WSL2480              CONDUIT     29.52     0  03:02      1.27    1.37    0.69
  WSL2482              CONDUIT     29.39     0  03:01      1.23    0.77    0.70
  WSL2484              CONDUIT     26.38     0  03:01      1.78    0.37    0.60
  WSL2493              CONDUIT     42.44     0  03:05      1.06    0.71    0.93
  WSL2867              CONDUIT    122.39     0  03:08      4.06    0.25    0.35
  WSL2868              CONDUIT    108.67     0  03:08      2.16    0.21    0.52
  WSL348               CONDUIT     63.16     0  03:00      1.88    0.58    1.00
  WSL175               CONDUIT     63.56     0  02:00      2.29    2.14    1.00
  WSL1467              CONDUIT    135.88     0  03:05      1.91    0.72    0.70
  WSL1473              CONDUIT    140.13     0  03:09      2.11    0.57    0.70
  XRpipe               CONDUIT     64.13     0  02:00      2.54    0.16    1.00
  8                    CONDUIT      0.00     0  00:00      0.00    0.00    0.00
  19                   CONDUIT      0.00     0  00:00      0.00    0.00    0.00
  17                   CONDUIT      0.00     0  00:00      0.00    0.00    0.00
  4                    CONDUIT      0.00     0  00:00      0.00    0.00    0.00
  2                    CONDUIT    153.24     0  03:10      4.18    0.55    0.53
  XR-Pump-1            PUMP         8.12     0  00:08              1.00
  XR-Pump-3            PUMP         8.12     0  00:09              1.00
  XR-Pump-2            PUMP         8.12     0  00:09              1.00
  XR-Pump-4            PUMP         8.12     0  01:12              1.00
  CC-Pump-1            PUMP        17.28     0  01:27              1.00
  CC-Pump-2            PUMP         0.00     0  00:00              0.00
  JK-Pump-1            PUMP         0.00     0  00:00              0.00
  JK-Pump-2            PUMP         0.00     0  00:00              0.00
  
  
  ***************************
  Flow Classification Summary
  ***************************
  
  -------------------------------------------------------------------------------------
                      Adjusted    ---------- Fraction of Time in Flow Class ---------- 
                       /Actual         Up    Down  Sub   Sup   Up    Down  Norm  Inlet 
  Conduit               Length    Dry  Dry   Dry   Crit  Crit  Crit  Crit  Ltd   Ctrl  
  -------------------------------------------------------------------------------------
  WSL49                   1.00   0.00  0.00  0.00  0.99  0.01  0.00  0.00  0.00  0.00
  WSL1465                 1.00   0.00  0.00  0.00  1.00  0.00  0.00  0.00  0.10  0.00
  WSL1472                 1.00   0.00  0.00  0.00  1.00  0.00  0.00  0.00  0.00  0.00
  WSL1475                 1.00   0.00  0.00  0.00  0.18  0.82  0.00  0.00  0.01  0.00
  WSL1476                 1.00   0.00  0.00  0.00  1.00  0.00  0.00  0.00  1.00  0.00
  WSL1477                 1.00   0.00  0.00  0.00  0.00  1.00  0.00  0.00  0.50  0.00
  WSL1490                 1.00   0.00  0.00  0.00  1.00  0.00  0.00  0.00  0.01  0.00
  WSL1491                 1.00   0.00  0.00  0.00  1.00  0.00  0.00  0.00  0.04  0.00
  WSL1492                 1.00   0.00  0.00  0.00  1.00  0.00  0.00  0.00  0.00  0.00
  WSL1507                 1.00   0.00  0.00  0.00  1.00  0.00  0.00  0.00  0.39  0.00
  WSL1508                 1.00   0.00  0.00  0.00  1.00  0.00  0.00  0.00  0.00  0.00
  WSL1512                 1.00   0.00  0.00  0.00  1.00  0.00  0.00  0.00  0.85  0.00
  WSL1513                 1.00   0.00  0.00  0.00  1.00  0.00  0.00  0.00  0.00  0.00
  WSL1515                 1.00   0.00  0.00  0.00  0.12  0.88  0.00  0.00  0.06  0.00
  WSL1516                 1.00   0.00  0.00  0.00  0.00  1.00  0.00  0.00  1.00  0.00
  WSL1518                 1.00   0.00  0.00  0.00  1.00  0.00  0.00  0.00  0.36  0.00
  WSL1519                 1.00   0.00  0.00  0.00  1.00  0.00  0.00  0.00  0.30  0.00
  WSL1521                 1.00   0.00  0.00  0.00  1.00  0.00  0.00  0.00  0.02  0.00
  WSL1543                 1.00   0.00  0.00  0.00  1.00  0.00  0.00  0.00  0.02  0.00
  WSL1961                 1.00   0.00  0.00  0.00  0.01  0.99  0.00  0.00  0.98  0.00
  WSL1964                 1.00   0.00  0.00  0.00  1.00  0.00  0.00  0.00  0.05  0.00
  WSL2010                 1.00   0.00  0.00  0.00  1.00  0.00  0.00  0.00  0.01  0.00
  WSL2011                 1.00   0.00  0.00  0.00  1.00  0.00  0.00  0.00  0.27  0.00
  WSL2012                 1.00   0.00  0.00  0.00  1.00  0.00  0.00  0.00  0.00  0.00
  WSL2013                 1.00   0.00  0.00  0.00  1.00  0.00  0.00  0.00  0.00  0.00
  WSL2014                 1.00   0.00  0.00  0.00  1.00  0.00  0.00  0.00  0.00  0.00
  WSL2015                 1.00   0.00  0.00  0.00  1.00  0.00  0.00  0.00  0.02  0.00
  WSL2016                 1.00   0.00  0.00  0.00  1.00  0.00  0.00  0.00  0.01  0.00
  WSL2017                 1.00   0.00  0.00  0.00  1.00  0.00  0.00  0.00  0.04  0.00
  WSL2018                 1.00   0.00  0.00  0.00  0.01  0.99  0.00  0.00  0.07  0.00
  WSL2019                 1.00   0.00  0.00  0.00  0.74  0.26  0.00  0.00  0.11  0.00
  WSL2028                 1.00   0.00  0.00  0.00  1.00  0.00  0.00  0.00  0.06  0.00
  WSL2029                 1.00   0.00  0.00  0.00  0.74  0.26  0.00  0.00  0.00  0.00
  WSL2038                 1.00   0.00  0.00  0.00  1.00  0.00  0.00  0.00  0.02  0.00
  WSL2039                 1.00   0.00  0.00  0.00  0.89  0.11  0.00  0.00  0.01  0.00
  WSL2041                 1.00   0.00  0.00  0.00  1.00  0.00  0.00  0.00  0.28  0.00
  WSL2294                 1.00   0.00  0.00  0.00  1.00  0.00  0.00  0.00  0.00  0.00
  WSL2295                 1.00   0.00  0.00  0.00  1.00  0.00  0.00  0.00  0.00  0.00
  WSL2296                 1.00   0.00  0.00  0.00  0.37  0.63  0.00  0.00  0.49  0.00
  WSL2297                 1.00   0.00  0.00  0.00  1.00  0.00  0.00  0.00  0.00  0.00
  WSL2298                 1.00   0.00  0.00  0.00  0.05  0.95  0.00  0.00  0.00  0.00
  WSL2301                 1.00   0.00  0.00  0.00  1.00  0.00  0.00  0.00  0.09  0.00
  WSL2302                 1.00   0.00  0.00  0.00  1.00  0.00  0.00  0.00  0.03  0.00
  WSL2441                 1.00   0.00  0.00  0.00  1.00  0.00  0.00  0.00  0.01  0.00
  WSL2442                 1.00   0.00  0.00  0.00  1.00  0.00  0.00  0.00  0.19  0.00
  WSL2443                 1.00   0.00  0.00  0.00  1.00  0.00  0.00  0.00  0.34  0.00
  WSL2444                 1.00   0.00  0.00  0.00  0.52  0.48  0.00  0.00  0.26  0.00
  WSL2446                 1.00   0.00  0.00  0.00  0.62  0.38  0.00  0.00  0.08  0.00
  WSL2447                 1.00   0.00  0.00  0.00  1.00  0.00  0.00  0.00  0.00  0.00
  WSL2448                 1.00   0.00  0.00  0.00  1.00  0.00  0.00  0.00  0.01  0.00
  WSL2449                 1.00   0.00  0.00  0.00  1.00  0.00  0.00  0.00  0.03  0.00
  WSL2450                 1.00   0.00  0.00  0.00  1.00  0.00  0.00  0.00  0.37  0.00
  WSL2451                 1.00   0.00  0.00  0.00  1.00  0.00  0.00  0.00  0.00  0.00
  WSL2452                 1.00   0.00  0.00  0.00  1.00  0.00  0.00  0.00  0.41  0.00
  WSL2454                 1.00   0.00  0.00  0.00  1.00  0.00  0.00  0.00  0.06  0.00
  WSL2478                 1.00   0.00  0.00  0.00  1.00  0.00  0.00  0.00  0.00  0.00
  WSL2479                 1.00   0.00  0.00  0.00  1.00  0.00  0.00  0.00  0.38  0.00
  WSL2480                 1.00   0.00  0.00  0.00  1.00  0.00  0.00  0.00  0.00  0.00
  WSL2482                 1.00   0.00  0.00  0.00  1.00  0.00  0.00  0.00  0.41  0.00
  WSL2484                 1.00   0.00  0.00  0.00  0.99  0.01  0.00  0.00  0.48  0.00
  WSL2493                 1.00   0.00  0.00  0.00  1.00  0.00  0.00  0.00  0.05  0.00
  WSL2867                 1.00   0.00  0.00  0.00  0.00  1.00  0.00  0.00  0.19  0.00
  WSL2868                 1.00   0.00  0.00  0.00  0.97  0.03  0.00  0.00  0.62  0.00
  WSL348                  1.00   0.00  0.00  0.00  1.00  0.00  0.00  0.00  0.01  0.00
  WSL175                  1.00   0.00  0.00  0.00  1.00  0.00  0.00  0.00  0.00  0.00
  WSL1467                 1.00   0.00  0.00  0.00  1.00  0.00  0.00  0.00  0.06  0.00
  WSL1473                 1.00   0.00  0.00  0.00  1.00  0.00  0.00  0.00  0.05  0.00
  XRpipe                  1.00   0.00  0.00  0.00  1.00  0.00  0.00  0.00  0.01  0.00
  8                       1.00   1.00  0.00  0.00  0.00  0.00  0.00  0.00  0.00  0.00
  19                      1.00   1.00  0.00  0.00  0.00  0.00  0.00  0.00  0.00  0.00
  17                      1.00   1.00  0.00  0.00  0.00  0.00  0.00  0.00  0.00  0.00
  4                       1.00   1.00  0.00  0.00  0.00  0.00  0.00  0.00  0.00  0.00
  2                       1.00   0.00  0.00  0.00  0.00  1.00  0.00  0.00  0.18  0.00
  
  
  *************************
  Conduit Surcharge Summary
  *************************
  
  ----------------------------------------------------------------------------
                                                           Hours        Hours 
                         --------- Hours Full --------   Above Full   Capacity
  Conduit                Both Ends  Upstream  Dnstream   Normal Flow   Limited
  ----------------------------------------------------------------------------
  WSL49                       0.01      0.01      0.01      1.89         0.01
  WSL1472                     0.01      0.01      0.01      1.46         0.01
  WSL1475                     0.01      0.01      0.01      1.42         0.01
  WSL1476                     0.01      0.01      0.31      0.01         0.01
  WSL1515                     0.01      0.01      0.01      0.14         0.01
  WSL2012                     0.01      0.01      0.01      0.16         0.01
  WSL2013                     0.01      0.01      0.01      1.45         0.01
  WSL2014                     0.01      0.01      0.01      0.74         0.01
  WSL2015                     0.01      0.01      0.01      0.34         0.01
  WSL2016                     0.01      0.01      0.01      0.19         0.01
  WSL2017                     0.01      0.01      0.01      0.31         0.01
  WSL2029                     0.01      0.01      0.01      0.40         0.01
  WSL2294                     0.01      0.01      0.01      1.72         0.01
  WSL2295                     0.01      0.01      0.01      1.99         0.01
  WSL2297                     0.01      0.01      0.01      0.66         0.01
  WSL2298                     0.01      0.01      0.01      2.15         0.01
  WSL2441                     0.01      0.01      0.01      1.22         0.01
  WSL2442                     0.20      0.21      0.20      0.28         0.20
  WSL2443                     0.01      0.01      0.21      0.01         0.01
  WSL2447                     0.01      0.01      0.01      1.89         0.01
  WSL2448                     0.01      0.01      0.01      0.12         0.01
  WSL2449                     0.01      0.01      0.01      0.86         0.01
  WSL2451                     0.01      0.01      0.01      1.99         0.01
  WSL2478                     0.01      0.01      0.01      0.84         0.01
  WSL2480                     0.01      0.01      0.01      1.59         0.01
  WSL348                      3.87      3.87      3.88      0.01         0.01
  WSL175                      3.88      3.88      3.88      2.69         2.78
  XRpipe                      3.88      3.88      3.96      0.01         0.01
  
  
  ***************
  Pumping Summary
  ***************
  
  ---------------------------------------------------------------------------------------------------------
                                                  Min       Avg       Max     Total     Power    % Time Off
                        Percent   Number of      Flow      Flow      Flow    Volume     Usage    Pump Curve
  Pump                 Utilized   Start-Ups       MLD       MLD       MLD  10^6 ltr     Kw-hr    Low   High
  ---------------------------------------------------------------------------------------------------------
  XR-Pump-1               96.32           1      0.00      8.12      8.12     1.303      6.30    0.0    0.0
  XR-Pump-3               91.52          17      0.00      8.12      8.12     1.239      5.82    0.0    0.0
  XR-Pump-2               96.18           1      0.00      8.12      8.12     1.301      6.29    0.0    0.0
  XR-Pump-4               68.33           7      0.00      8.12      8.12     0.925      3.48    0.0    0.0
  CC-Pump-1               50.17           4      0.00     17.28     17.28     1.445      3.50    0.0    0.0
  CC-Pump-2                0.00           0      0.00      0.00      0.00     0.000      0.00    0.0    0.0
  JK-Pump-1                0.00           0      0.00      0.00      0.00     0.000      0.00    0.0    0.0
  JK-Pump-2                0.00           0      0.00      0.00      0.00     0.000      0.00    0.0    0.0
  
  
  ***************************
  Link Pollutant Load Summary
  ***************************
  
  ------------------------------------------------------------------------------------------
                                 COD         NH3-N            TN            TP            SS
  Link                            kg            kg            kg            kg            kg
  ------------------------------------------------------------------------------------------
  WSL49                     2403.759         0.000         0.000         0.000         0.000
  WSL1465                    831.198         0.000         0.000         0.000         0.000
  WSL1472                   2180.468         0.000         0.000         0.000         0.000
  WSL1475                   2421.490         0.000         0.000         0.000         0.000
  WSL1476                    223.406         0.000         0.000         0.000         0.000
  WSL1477                    221.793         0.000         0.000         0.000         0.000
  WSL1490                    819.474         0.000         0.000         0.000         0.000
  WSL1491                    823.057         0.000         0.000         0.000         0.000
  WSL1492                    828.692         0.000         0.000         0.000         0.000
  WSL1507                      1.053         0.000         0.000         0.000         0.000
  WSL1508                    141.890         0.000         0.000         0.000         0.000
  WSL1512                    141.937         0.000         0.000         0.000         0.000
  WSL1513                    142.958         0.000         0.000         0.000         0.000
  WSL1515                   1346.172         0.000         0.000         0.000         0.000
  WSL1516                    222.205         0.000         0.000         0.000         0.000
  WSL1518                    219.995         0.000         0.000         0.000         0.000
  WSL1519                    220.060         0.000         0.000         0.000         0.000
  WSL1521                    220.799         0.000         0.000         0.000         0.000
  WSL1543                    219.886         0.000         0.000         0.000         0.000
  WSL1961                    807.939         0.000         0.000         0.000         0.000
  WSL1964                    816.236         0.000         0.000         0.000         0.000
  WSL2010                    836.535         0.000         0.000         0.000         0.000
  WSL2011                    840.532         0.000         0.000         0.000         0.000
  WSL2012                    845.054         0.000         0.000         0.000         0.000
  WSL2013                    897.731         0.000         0.000         0.000         0.000
  WSL2014                   1133.453         0.000         0.000         0.000         0.000
  WSL2015                   1132.844         0.000         0.000         0.000         0.000
  WSL2016                   1249.594         0.000         0.000         0.000         0.000
  WSL2017                   1250.247         0.000         0.000         0.000         0.000
  WSL2018                   1340.853         0.000         0.000         0.000         0.000
  WSL2019                   1341.710         0.000         0.000         0.000         0.000
  WSL2028                    833.148         0.000         0.000         0.000         0.000
  WSL2029                   1253.814         0.000         0.000         0.000         0.000
  WSL2038                     90.789         0.000         0.000         0.000         0.000
  WSL2039                     98.191         0.000         0.000         0.000         0.000
  WSL2041                     94.639         0.000         0.000         0.000         0.000
  WSL2294                    821.191         0.000         0.000         0.000         0.000
  WSL2295                    820.915         0.000         0.000         0.000         0.000
  WSL2296                    828.577         0.000         0.000         0.000         0.000
  WSL2297                    830.550         0.000         0.000         0.000         0.000
  WSL2298                    823.536         0.000         0.000         0.000         0.000
  WSL2301                    830.377         0.000         0.000         0.000         0.000
  WSL2302                    833.913         0.000         0.000         0.000         0.000
  WSL2441                    821.663         0.000         0.000         0.000         0.000
  WSL2442                    509.213         0.000         0.000         0.000         0.000
  WSL2443                    508.676         0.000         0.000         0.000         0.000
  WSL2444                    506.020         0.000         0.000         0.000         0.000
  WSL2446                    504.436         0.000         0.000         0.000         0.000
  WSL2447                    501.516         0.000         0.000         0.000         0.000
  WSL2448                    498.200         0.000         0.000         0.000         0.000
  WSL2449                    494.874         0.000         0.000         0.000         0.000
  WSL2450                    492.876         0.000         0.000         0.000         0.000
  WSL2451                    492.046         0.000         0.000         0.000         0.000
  WSL2452                    491.013         0.000         0.000         0.000         0.000
  WSL2454                    487.232         0.000         0.000         0.000         0.000
  WSL2478                    485.899         0.000         0.000         0.000         0.000
  WSL2479                    413.364         0.000         0.000         0.000         0.000
  WSL2480                    410.293         0.000         0.000         0.000         0.000
  WSL2482                    405.975         0.000         0.000         0.000         0.000
  WSL2484                    360.149         0.000         0.000         0.000         0.000
  WSL2493                    511.192         0.000         0.000         0.000         0.000
  WSL2867                   1346.113         0.000         0.000         0.000         0.000
  WSL2868                   1349.998         0.000         0.000         0.000         0.000
  WSL348                    1328.652         0.000         0.000         0.000         0.000
  WSL175                    1335.087         0.000         0.000         0.000         0.000
  WSL1467                   2178.536         0.000         0.000         0.000         0.000
  WSL1473                   2182.419         0.000         0.000         0.000         0.000
  XRpipe                    1347.963         0.000         0.000         0.000         0.000
  8                            0.000         0.000         0.000         0.000         0.000
  19                           0.000         0.000         0.000         0.000         0.000
  17                           0.000         0.000         0.000         0.000         0.000
  4                            0.000         0.000         0.000         0.000         0.000
  2                         2429.961         0.000         0.000         0.000         0.000
  XR-Pump-1                  217.555         0.000         0.000         0.000         0.000
  XR-Pump-3                  206.725         0.000         0.000         0.000         0.000
  XR-Pump-2                  217.241         0.000         0.000         0.000         0.000
  XR-Pump-4                  154.652         0.000         0.000         0.000         0.000
  CC-Pump-1                  260.982         0.000         0.000         0.000         0.000
  CC-Pump-2                    0.000         0.000         0.000         0.000         0.000
  JK-Pump-1                    0.000         0.000         0.000         0.000         0.000
  JK-Pump-2                    0.000         0.000         0.000         0.000         0.000
  

  Analysis begun on:  Wed Mar 20 15:02:07 2019
  Analysis ended on:  Wed Mar 20 15:02:08 2019
  Total elapsed time: 00:00:01