
  EPA STORM WATER MANAGEMENT MODEL - VERSION 5.1 (Build 5.2.0.dev1)
  --------------------------------------------------------------

  
  *********************************************************
  NOTE: The summary statistics displayed in this report are
  based on results found at every computational time step,  
  not just on results from each reporting time step.
  *********************************************************
  
  ****************
  Analysis Options
  ****************
  Flow Units ............... MLD
  Process Models:
    Rainfall/Runoff ........ YES
    RDII ................... NO
    Snowmelt ............... NO
    Groundwater ............ NO
    Flow Routing ........... YES
    Ponding Allowed ........ NO
    Water Quality .......... YES
  Infiltration Method ...... GREEN_AMPT
  Flow Routing Method ...... DYNWAVE
  Starting Date ............ 08/28/2015 08:00:00
  Ending Date .............. 08/28/2015 12:00:00
  Antecedent Dry Days ...... 4.0
  Report Time Step ......... 00:01:00
  Wet Time Step ............ 00:01:00
  Dry Time Step ............ 00:01:00
  Routing Time Step ........ 5.00 sec
  Variable Time Step ....... YES
  Maximum Trials ........... 8
  Number of Threads ........ 1
  Head Tolerance ........... 0.001500 m
  
  
  **************************        Volume         Depth
  Runoff Quantity Continuity     hectare-m            mm
  **************************     ---------       -------
  Total Precipitation ......         2.963        10.506
  Evaporation Loss .........         0.000         0.000
  Infiltration Loss ........         1.505         5.336
  Surface Runoff ...........         0.611         2.168
  Final Storage ............         0.848         3.008
  Continuity Error (%) .....        -0.049
  
  
  **************************           COD         NH3-N            TN            TP            SS
  Runoff Quality Continuity             kg            kg            kg            kg            kg
  **************************    ----------    ----------    ----------    ----------    ----------
  Initial Buildup ..........     13074.240         0.000         0.000         0.000         0.000
  Surface Buildup ..........       111.780         0.000         0.000         0.000         0.000
  Wet Deposition ...........         0.000         0.000         0.000         0.000         0.000
  Sweeping Removal .........         0.000         0.000         0.000         0.000         0.000
  Infiltration Loss ........        62.603         0.000         0.000         0.000         0.000
  BMP Removal ..............         0.000         0.000         0.000         0.000         0.000
  Surface Runoff ...........       514.591         0.000         0.000         0.000         0.000
  Remaining Buildup ........     12608.364         0.000         0.000         0.000         0.000
  Continuity Error (%) .....         0.004         0.000         0.000         0.000         0.000
  
  
  **************************        Volume        Volume
  Flow Routing Continuity        hectare-m      10^6 ltr
  **************************     ---------     ---------
  Dry Weather Inflow .......         0.000         0.000
  Wet Weather Inflow .......         0.610         6.096
  Groundwater Inflow .......         0.000         0.000
  RDII Inflow ..............         0.000         0.000
  External Inflow ..........         0.561         5.611
  External Outflow .........         0.789         7.894
  Flooding Loss ............         0.293         2.926
  Evaporation Loss .........         0.000         0.000
  Exfiltration Loss ........         0.000         0.000
  Initial Stored Volume ....         0.000         0.000
  Final Stored Volume ......         0.088         0.884
  Continuity Error (%) .....         0.030
  
  
  **************************           COD         NH3-N            TN            TP            SS
  Quality Routing Continuity            kg            kg            kg            kg            kg
  **************************    ----------    ----------    ----------    ----------    ----------
  Dry Weather Inflow .......         0.000         0.000         0.000         0.000         0.000
  Wet Weather Inflow .......       513.408         0.000         0.000         0.000         0.000
  Groundwater Inflow .......         0.000         0.000         0.000         0.000         0.000
  RDII Inflow ..............         0.000         0.000         0.000         0.000         0.000
  External Inflow ..........       937.032         0.000         0.000         0.000         0.000
  External Outflow .........      1049.791         0.000         0.000         0.000         0.000
  Flooding Loss ............       311.840         0.000         0.000         0.000         0.000
  Exfiltration Loss ........         0.000         0.000         0.000         0.000         0.000
  Mass Reacted .............         0.000         0.000         0.000         0.000         0.000
  Initial Stored Mass ......         0.000         0.000         0.000         0.000         0.000
  Final Stored Mass ........        89.300         0.000         0.000         0.000         0.000
  Continuity Error (%) .....        -0.034         0.000         0.000         0.000         0.000
  
  
  *************************
  Highest Continuity Errors
  *************************
  Node WS02005196 (1.92%)
  Node WS02005193 (1.52%)
  Node WS02003099 (1.30%)
  Node WS02003094 (1.06%)
  
  
  ***************************
  Time-Step Critical Elements
  ***************************
  Link WSL2448 (40.24%)
  Link WSL1477 (34.42%)
  Link WSL2867 (3.62%)
  
  
  ********************************
  Highest Flow Instability Indexes
  ********************************
  Link WSL1477 (81)
  Link WSL1516 (70)
  Link XRpipe (27)
  Link WSL348 (24)
  Link WSL175 (22)
  
  
  *************************
  Routing Time Step Summary
  *************************
  Minimum Time Step           :     2.13 sec
  Average Time Step           :     3.32 sec
  Maximum Time Step           :     5.00 sec
  Percent in Steady State     :     0.00
  Average Iterations per Step :     3.67
  Percent Not Converging      :    16.19
  
  
  ***************************
  Subcatchment Runoff Summary
  ***************************
  
  --------------------------------------------------------------------------------------------------------
                            Total      Total      Total      Total      Total       Total     Peak  Runoff
                           Precip      Runon       Evap      Infil     Runoff      Runoff   Runoff   Coeff
  Subcatchment                 mm         mm         mm         mm         mm    10^6 ltr      MLD
  --------------------------------------------------------------------------------------------------------
  1                         10.51       8.44       0.00       7.39       6.78        0.08     1.49   0.358
  2                         10.51       0.00       0.00       6.18       2.81        0.09     1.76   0.267
  3                         10.51       0.00       0.00       6.19       2.71        0.14     2.54   0.258
  4                         10.51       0.00       0.00       6.17       2.87        0.08     1.43   0.273
  5                         10.51       7.00       0.00       7.31       5.94        0.10     1.85   0.340
  6                         10.51       0.00       0.00       6.19       2.71        0.13     2.47   0.258
  7                         10.51       0.00       0.00       4.52       2.38        3.81    62.67   0.227
  8                         10.51       0.00       0.00       6.19       2.75        0.12     2.16   0.262
  9                         10.51       2.70       0.00       6.68       3.71        0.14     2.57   0.281
  17                        10.51       0.00       0.00       6.18       2.79        0.10     1.90   0.265
  18                        10.51       0.00       0.00       6.19       2.75        0.12     2.20   0.261
  28                        10.51       7.86       0.00       7.40       5.85        0.15     2.75   0.319
  29                        10.51       3.25       0.00       6.68       4.02        0.10     1.78   0.292
  30                        10.51      10.65       0.00       7.73       8.44        0.08     1.44   0.399
  31                        10.51       0.00       0.00       6.18       2.79        0.10     1.84   0.266
  33                        10.51       0.00       0.00       6.12       3.17        0.03     0.54   0.302
  34                        10.51       5.94       0.00       7.19       5.34        0.11     2.03   0.325
  35                        10.51       0.00       0.00       6.18       2.83        0.09     1.60   0.270
  36                        10.51       5.28       0.00       7.12       4.41        0.26     4.66   0.279
  39                        10.51       0.00       0.00       6.18       2.80        0.10     1.78   0.267
  40                        10.51       1.46       0.00       6.47       3.26        0.13     2.35   0.273
  41                        10.51       0.00       0.00       6.16       2.95        0.06     1.08   0.281
  42                        10.51       0.00       0.00       6.17       2.91        0.07     1.25   0.277
  43                        10.51       0.00       0.00       6.07       3.45        0.01     0.25   0.328
  44                        10.51      73.39       0.00      11.55      56.87        0.21     3.67   0.678
  45                        10.51       0.00       0.00       6.13       3.12        0.03     0.62   0.297
  46                        10.51       4.35       0.00       6.93       4.61        0.10     1.82   0.310
  47                        10.51       0.00       0.00       6.13       3.10        0.03     0.66   0.295
  48                        10.51       2.17       0.00       6.55       3.87        0.06     1.15   0.305
  55                        10.51       3.21       0.00       6.68       4.65        0.04     0.74   0.339
  56                        10.51       4.81       0.00       6.99       4.79        0.10     1.88   0.313
  57                        10.51       0.00       0.00       6.19       2.71        0.14     2.50   0.258
  59                        10.51       0.00       0.00       6.12       3.18        0.03     0.52   0.303
  60                        10.51       7.09       0.00       7.19       7.08        0.04     0.71   0.402
  61                        10.51       0.00       0.00       6.22       2.38        0.43     7.76   0.227
  62                        10.51       0.00       0.00       6.22       2.37        0.45     8.13   0.226
  64                        10.51       0.00       0.00       6.14       3.08        0.04     0.71   0.293
  
  
  ****************************
  Subcatchment Washoff Summary
  ****************************
  
  ------------------------------------------------------------------------------------------
                                 COD         NH3-N            TN            TP            SS
  Subcatchment                    kg            kg            kg            kg            kg
  ------------------------------------------------------------------------------------------
  1                            5.750         0.000         0.000         0.000         0.000
  2                            0.000         0.000         0.000         0.000         0.000
  3                            0.000         0.000         0.000         0.000         0.000
  4                            6.479         0.000         0.000         0.000         0.000
  5                           18.685         0.000         0.000         0.000         0.000
  6                           10.838         0.000         0.000         0.000         0.000
  7                          286.625         0.000         0.000         0.000         0.000
  8                            9.549         0.000         0.000         0.000         0.000
  9                           17.015         0.000         0.000         0.000         0.000
  17                           8.469         0.000         0.000         0.000         0.000
  18                           9.735         0.000         0.000         0.000         0.000
  28                          33.071         0.000         0.000         0.000         0.000
  29                          15.407         0.000         0.000         0.000         0.000
  30                          18.515         0.000         0.000         0.000         0.000
  31                           8.238         0.000         0.000         0.000         0.000
  33                           2.567         0.000         0.000         0.000         0.000
  34                          18.893         0.000         0.000         0.000         0.000
  35                           7.221         0.000         0.000         0.000         0.000
  36                          40.903         0.000         0.000         0.000         0.000
  39                           7.967         0.000         0.000         0.000         0.000
  40                          13.352         0.000         0.000         0.000         0.000
  41                           4.982         0.000         0.000         0.000         0.000
  42                           5.699         0.000         0.000         0.000         0.000
  43                           1.256         0.000         0.000         0.000         0.000
  44                          46.866         0.000         0.000         0.000         0.000
  45                           2.949         0.000         0.000         0.000         0.000
  46                          15.396         0.000         0.000         0.000         0.000
  47                           3.137         0.000         0.000         0.000         0.000
  48                           7.559         0.000         0.000         0.000         0.000
  55                           5.693         0.000         0.000         0.000         0.000
  56                          17.054         0.000         0.000         0.000         0.000
  57                          10.947         0.000         0.000         0.000         0.000
  59                           2.495         0.000         0.000         0.000         0.000
  60                           7.737         0.000         0.000         0.000         0.000
  61                          30.871         0.000         0.000         0.000         0.000
  62                          32.203         0.000         0.000         0.000         0.000
  64                           3.345         0.000         0.000         0.000         0.000
  ------------------------------------------------------------------------------------------
  System                     737.467         0.000         0.000         0.000         0.000
  
  
  ******************
  Node Depth Summary
  ******************
  
  ---------------------------------------------------------------------------------
                                 Average  Maximum  Maximum  Time of Max    Reported
                                   Depth    Depth      HGL   Occurrence   Max Depth
  Node                 Type       Meters   Meters   Meters  days hr:min      Meters
  ---------------------------------------------------------------------------------
  WS01000070           JUNCTION     0.00     0.00     0.00     0  00:00        0.00
  WS01000323           JUNCTION     0.00     0.00     0.00     0  00:00        0.00
  WS01000533           JUNCTION     0.00     0.00     6.86     0  00:00        0.00
  WS01005172           JUNCTION     0.00     0.00     0.00     0  00:00        0.00
  WS01005181           JUNCTION     0.00     0.00     0.00     0  00:00        0.00
  WS01009841           JUNCTION     0.00     0.00     0.00     0  00:00        0.00
  WS02000078           JUNCTION     0.00     0.00     0.00     0  00:00        0.00
  WS02000112           JUNCTION     0.00     0.00     0.00     0  00:00        0.00
  WS02000136           JUNCTION     0.00     0.00     0.00     0  00:00        0.00
  WS02001211           JUNCTION     0.41     0.44     5.28     0  03:06        0.44
  WS02001212           JUNCTION     0.34     0.38     5.18     0  03:05        0.38
  WS02001213           JUNCTION     0.43     0.49     5.19     0  03:04        0.49
  WS02003059           JUNCTION     0.38     0.47     5.12     0  03:03        0.47
  WS02003060           JUNCTION     0.42     0.55     5.10     0  03:02        0.55
  WS02003066           JUNCTION     0.15     0.26     5.56     0  03:03        0.25
  WS02003067           JUNCTION     0.25     0.43     5.75     0  03:03        0.42
  WS02003071           JUNCTION     0.47     0.60     5.00     0  03:03        0.60
  WS02003072           JUNCTION     0.39     0.51     4.88     0  03:08        0.51
  WS02003073           JUNCTION     0.46     0.62     4.86     0  03:07        0.60
  WS02003076           JUNCTION     0.41     0.60     4.83     0  03:23        0.59
  WS02003077           JUNCTION     0.05     0.09     5.10     0  03:07        0.08
  WS02003078           JUNCTION     0.03     0.06     6.96     0  03:07        0.05
  WS02003079           JUNCTION     0.10     0.18     7.09     0  03:04        0.18
  WS02003093           JUNCTION     0.01     0.03     7.37     0  03:02        0.03
  WS02003094           JUNCTION     0.09     0.15     7.37     0  03:01        0.15
  WS02003098           JUNCTION     0.06     0.09     7.26     0  03:02        0.09
  WS02003099           JUNCTION     0.12     0.18     7.22     0  03:03        0.18
  WS02003102           JUNCTION     0.10     0.17     7.20     0  03:01        0.17
  WS02003103           JUNCTION     0.12     0.19     7.16     0  03:02        0.19
  WS02003104           JUNCTION     0.11     0.18     7.14     0  03:02        0.18
  WS02003106           JUNCTION     0.12     0.19     7.12     0  03:03        0.19
  WS02004050           JUNCTION     0.29     0.37     4.59     0  03:06        0.37
  WS02004053           JUNCTION     0.00     0.00     0.00     0  00:00        0.00
  WS02004136           JUNCTION     0.17     0.18     6.91     0  01:24        0.18
  WS02004139           JUNCTION     0.34     0.37     5.33     0  03:07        0.37
  WS02004401           JUNCTION     0.24     0.41     6.41     0  02:58        0.41
  WS02004402           JUNCTION     0.24     0.42     6.38     0  02:59        0.42
  WS02004403           JUNCTION     0.22     0.42     6.35     0  02:59        0.42
  WS02004404           JUNCTION     0.31     0.50     6.35     0  03:00        0.50
  WS02004405           JUNCTION     0.31     0.51     6.35     0  03:00        0.51
  WS02004406           JUNCTION     0.29     0.48     6.31     0  03:00        0.48
  WS02004407           JUNCTION     0.28     0.46     6.26     0  03:00        0.46
  WS02004409           JUNCTION     0.27     0.44     6.21     0  03:01        0.44
  WS02004410           JUNCTION     0.26     0.43     6.15     0  03:01        0.43
  WS02004411           JUNCTION     0.25     0.40     6.08     0  03:01        0.40
  WS02004412           JUNCTION     0.20     0.34     5.98     0  03:01        0.34
  WS02004413           JUNCTION     0.21     0.36     5.83     0  03:01        0.36
  WS02004997           JUNCTION     5.10     6.68     8.29     0  03:00        6.68
  WS02005192           JUNCTION     0.12     0.27     8.14     0  02:44        0.27
  WS02005193           JUNCTION     0.13     0.28     8.10     0  02:45        0.27
  WS02005196           JUNCTION     0.12     0.27     8.12     0  02:45        0.26
  WS02006109           JUNCTION     0.28     0.47     7.09     0  02:56        0.47
  WS02006110           JUNCTION     0.26     0.44     7.04     0  02:56        0.43
  WS02006111           JUNCTION     0.13     0.23     6.81     0  02:57        0.23
  WS02006112           JUNCTION     0.26     0.44     6.56     0  02:57        0.44
  WS02006113           JUNCTION     0.22     0.37     6.96     0  02:56        0.37
  WS02006115           JUNCTION     0.22     0.39     6.49     0  02:58        0.39
  WS02006116           JUNCTION     0.24     0.42     6.46     0  02:58        0.42
  WS02006183           JUNCTION     0.00     0.00     0.00     0  00:00        0.00
  WS02006228           JUNCTION     0.28     0.48     7.13     0  02:55        0.48
  WS02006229           JUNCTION     0.25     0.45     7.14     0  02:55        0.45
  WS02006230           JUNCTION     0.23     0.43     7.18     0  02:55        0.43
  WS02006231           JUNCTION     0.17     0.33     7.23     0  02:55        0.33
  WS02006232           JUNCTION     0.17     0.31     7.34     0  02:50        0.31
  WS02006234           JUNCTION     0.17     0.31     7.47     0  02:50        0.31
  WS02006235           JUNCTION     0.21     0.36     7.53     0  02:50        0.36
  WS02006238           JUNCTION     0.21     0.37     7.55     0  02:50        0.37
  WS02006239           JUNCTION     0.22     0.40     7.61     0  03:08        0.40
  WS02006242           JUNCTION     0.23     0.43     7.73     0  02:52        0.43
  WS02006240           JUNCTION     0.18     0.36     7.65     0  02:53        0.36
  WS02006243           JUNCTION     0.17     0.35     7.77     0  03:07        0.35
  WS02006245           JUNCTION     0.18     0.36     7.85     0  03:06        0.36
  WS02006247           JUNCTION     0.20     0.39     7.90     0  03:06        0.38
  WS02006248           JUNCTION     0.15     0.34     7.93     0  03:06        0.34
  WS02006249           JUNCTION     0.18     0.37     7.97     0  03:05        0.37
  WS02006251           JUNCTION     0.17     0.38     8.05     0  02:46        0.37
  WS02006253           JUNCTION     0.12     0.29     8.09     0  03:04        0.29
  WS02618401           JUNCTION     0.00     0.00     0.00     0  00:00        0.00
  WS8802               JUNCTION     0.00     0.00     4.38     0  00:00        0.00
  WSA1649              JUNCTION     0.00     0.00     0.00     0  00:00        0.00
  WSF200               JUNCTION     0.14     0.24     5.34     0  03:00        0.23
  XR-Inflow            JUNCTION     4.94     6.55     8.36     0  02:40        6.55
  WS02004114           JUNCTION     5.08     6.65     8.25     0  03:00        6.65
  outfall-2            OUTFALL      0.00     0.00     7.00     0  00:00        0.00
  outfall-5            OUTFALL      0.00     0.00     7.67     0  00:00        0.00
  outfall-14           OUTFALL      0.00     0.00     7.66     0  00:00        0.00
  outfall-16           OUTFALL      0.00     0.00     8.39     0  00:00        0.00
  12                   OUTFALL      0.29     0.37     0.37     0  03:06        0.37
  XR-storage           STORAGE      6.16     7.72     8.22     0  02:04        7.72
  CC-storage           STORAGE      3.48     5.03     8.21     0  03:01        5.03
  JK-storage           STORAGE      3.83     4.80     7.80     0  01:52        4.80
  
  
  *******************
  Node Inflow Summary
  *******************
  
  -------------------------------------------------------------------------------------------------
                                  Maximum  Maximum                  Lateral       Total        Flow
                                  Lateral    Total  Time of Max      Inflow      Inflow     Balance
                                   Inflow   Inflow   Occurrence      Volume      Volume       Error
  Node                 Type           MLD      MLD  days hr:min    10^6 ltr    10^6 ltr     Percent
  -------------------------------------------------------------------------------------------------
  WS01000070           JUNCTION      0.00     0.00     0  00:00           0           0       0.000 ltr
  WS01000323           JUNCTION      0.00     0.00     0  00:00           0           0       0.000 ltr
  WS01000533           JUNCTION      0.00     0.00     0  00:00           0           0       0.000 ltr
  WS01005172           JUNCTION      0.00     0.00     0  00:00           0           0       0.000 ltr
  WS01005181           JUNCTION      0.00     0.00     0  00:00           0           0       0.000 ltr
  WS01009841           JUNCTION      0.00     0.00     0  00:00           0           0       0.000 ltr
  WS02000078           JUNCTION      0.00     0.00     0  00:00           0           0       0.000 ltr
  WS02000112           JUNCTION      0.00     0.00     0  00:00           0           0       0.000 ltr
  WS02000136           JUNCTION      0.00     0.00     0  00:00           0           0       0.000 ltr
  WS02001211           JUNCTION      0.25    33.89     0  01:44      0.0407        4.83       0.530
  WS02001212           JUNCTION      0.21    34.04     0  01:45      0.0346        4.83       0.293
  WS02001213           JUNCTION      0.30    34.33     0  03:10      0.0489        4.87       0.395
  WS02003059           JUNCTION      0.23    34.94     0  03:07      0.0378        4.89       0.457
  WS02003060           JUNCTION      0.16    78.60     0  03:03      0.0252        7.41       0.416
  WS02003066           JUNCTION      0.08    50.50     0  03:03      0.0122         2.5       0.124
  WS02003067           JUNCTION      0.26    41.59     0  03:02      0.0395         2.5       0.241
  WS02003071           JUNCTION      0.35    74.83     0  03:04      0.0538        7.44       0.437
  WS02003072           JUNCTION      0.24    74.89     0  03:03      0.0382        7.44       0.269
  WS02003073           JUNCTION      0.07    79.73     0  03:03     0.00978        7.74       0.257
  WS02003076           JUNCTION      0.72    87.07     0  03:07        0.12        7.84       0.153
  WS02003077           JUNCTION      0.04     5.46     0  03:07      0.0059       0.305       0.154
  WS02003078           JUNCTION      0.03     6.30     0  03:07     0.00419       0.299      -0.087
  WS02003079           JUNCTION      0.04     4.72     0  03:03     0.00561       0.295       0.318
  WS02003093           JUNCTION      0.02     0.02     0  01:00     0.00306     0.00306       0.740
  WS02003094           JUNCTION      2.62     2.62     0  03:01        0.15       0.153       1.071
  WS02003098           JUNCTION      0.02     2.61     0  03:01     0.00293       0.154       0.601
  WS02003099           JUNCTION      0.07     2.65     0  03:02      0.0109       0.164       1.315
  WS02003102           JUNCTION      2.18     4.72     0  03:01       0.121       0.283       0.598
  WS02003103           JUNCTION      0.02     4.68     0  03:01     0.00239       0.283       0.451
  WS02003104           JUNCTION      0.02     4.67     0  03:02     0.00302       0.285       0.377
  WS02003106           JUNCTION      0.05     4.70     0  03:02     0.00728       0.291       0.474
  WS02004050           JUNCTION      0.72    95.36     0  03:23       0.119        7.94       0.617
  WS02004053           JUNCTION      0.00     0.00     0  00:00           0           0       0.000 ltr
  WS02004136           JUNCTION      0.44    32.92     0  01:22      0.0703        4.74       0.068
  WS02004139           JUNCTION      0.38    33.58     0  01:24      0.0619         4.8       0.374
  WS02004401           JUNCTION      0.05    31.39     0  02:58     0.00897        1.77       0.232
  WS02004402           JUNCTION      0.22    31.55     0  02:59      0.0335         1.8       0.209
  WS02004403           JUNCTION      0.23    31.47     0  02:59      0.0349        1.83       0.160
  WS02004404           JUNCTION      0.24    31.61     0  02:59      0.0365        1.87       0.183
  WS02004405           JUNCTION      1.49    32.99     0  02:59      0.0877        1.95       0.265
  WS02004406           JUNCTION      2.87    35.68     0  03:00       0.175        2.12       0.369
  WS02004407           JUNCTION      0.11    35.75     0  03:00      0.0171        2.13       0.329
  WS02004409           JUNCTION      2.03    37.76     0  03:01       0.135        2.26       0.274
  WS02004410           JUNCTION      0.15    37.83     0  03:01      0.0226        2.27       0.286
  WS02004411           JUNCTION      0.25    38.02     0  03:01      0.0379         2.3       0.246
  WS02004412           JUNCTION      2.55    40.61     0  03:01       0.149        2.45       0.184
  WS02004413           JUNCTION      0.11    40.71     0  03:02      0.0172        2.46       0.165
  WS02004997           JUNCTION      0.42    63.57     0  03:00      0.0693        6.87       0.571
  WS02005192           JUNCTION      2.59     3.34     0  02:02       0.153       0.157       0.906
  WS02005193           JUNCTION      0.09     6.63     0  03:02      0.0146       0.219       1.546
  WS02005196           JUNCTION      0.12     4.47     0  02:44       0.019       0.187       1.963
  WS02006109           JUNCTION      0.08    28.40     0  02:55      0.0135         1.5       0.359
  WS02006110           JUNCTION      0.08    28.49     0  02:56      0.0132        1.51       0.352
  WS02006111           JUNCTION      0.24    31.25     0  02:57      0.0366         1.7       0.119
  WS02006112           JUNCTION      0.18    31.45     0  02:57      0.0273        1.73       0.258
  WS02006113           JUNCTION      2.68    31.05     0  02:56       0.164        1.67       0.238
  WS02006115           JUNCTION      0.08    31.47     0  02:57      0.0134        1.73       0.256
  WS02006116           JUNCTION      0.24    31.53     0  02:58       0.036        1.77       0.254
  WS02006183           JUNCTION      0.00     0.00     0  00:00           0           0       0.000 ltr
  WS02006228           JUNCTION      3.82    28.44     0  02:55       0.238        1.49       0.261
  WS02006229           JUNCTION      0.13    24.90     0  02:55        0.02        1.26       0.222
  WS02006230           JUNCTION      0.07    25.16     0  02:51      0.0116        1.24       0.195
  WS02006231           JUNCTION      0.13    24.92     0  02:50      0.0205        1.23       0.102
  WS02006232           JUNCTION      1.84    24.71     0  02:50       0.108        1.21       0.123
  WS02006234           JUNCTION      0.14    22.93     0  02:54      0.0216         1.1       0.149
  WS02006235           JUNCTION      0.14    22.80     0  02:54      0.0223        1.08       0.077
  WS02006238           JUNCTION      0.15    22.73     0  03:08      0.0235        1.06       0.157
  WS02006239           JUNCTION      0.11    22.58     0  02:53      0.0174        1.04       0.211
  WS02006242           JUNCTION      0.08    22.82     0  03:07      0.0129        1.02       0.314
  WS02006240           JUNCTION      0.06    22.56     0  03:08     0.00992        1.02       0.167
  WS02006243           JUNCTION      0.17    23.18     0  03:07      0.0269        1.01       0.281
  WS02006245           JUNCTION      0.07    23.35     0  03:06      0.0113       0.985       0.503
  WS02006247           JUNCTION      1.62    22.80     0  03:06       0.107       0.979       0.513
  WS02006248           JUNCTION      0.12    21.48     0  02:46      0.0192       0.876       0.415
  WS02006249           JUNCTION      0.19    21.96     0  02:46      0.0286       0.863       0.825
  WS02006251           JUNCTION      0.80    21.89     0  02:45      0.0483       0.841       0.764
  WS02006253           JUNCTION      0.11    20.70     0  02:45      0.0173       0.821       0.330
  WS02618401           JUNCTION      0.00     0.00     0  00:00           0           0       0.000 ltr
  WS8802               JUNCTION      0.00     0.00     0  00:00           0           0       0.000 ltr
  WSA1649              JUNCTION      0.00     0.00     0  00:00           0           0       0.000 ltr
  WSF200               JUNCTION      0.14    45.94     0  03:00      0.0216        2.52      -0.010
  XR-Inflow            JUNCTION     80.64    80.64     0  03:00        7.14        7.14       0.330
  WS02004114           JUNCTION      0.57    64.10     0  03:00      0.0916        6.93       0.351
  outfall-2            OUTFALL       0.00     0.00     0  00:00           0           0       0.000 ltr
  outfall-5            OUTFALL       0.00     0.00     0  00:00           0           0       0.000 ltr
  outfall-14           OUTFALL       0.00     0.00     0  00:00           0           0       0.000 ltr
  outfall-16           OUTFALL       0.00     0.00     0  00:00           0           0       0.000 ltr
  12                   OUTFALL       0.00    81.27     0  03:06           0        7.89       0.000
  XR-storage           STORAGE       0.00    64.10     0  03:00           0         6.9       0.677
  CC-storage           STORAGE       9.27     9.27     0  03:00       0.716       0.716       0.002
  JK-storage           STORAGE       9.03     9.03     0  03:01       0.626       0.626       0.001
  
  
  **********************
  Node Surcharge Summary
  **********************
  
  Surcharging occurs when water rises above the top of the highest conduit.
  ---------------------------------------------------------------------
                                               Max. Height   Min. Depth
                                   Hours       Above Crown    Below Rim
  Node                 Type      Surcharged         Meters       Meters
  ---------------------------------------------------------------------
  WS01000070           JUNCTION        4.00          0.000        0.000
  WS01000323           JUNCTION        4.00          0.000        0.000
  WS01000533           JUNCTION        4.00          0.000        2.147
  WS01005172           JUNCTION        4.00          0.000        0.000
  WS01005181           JUNCTION        4.00          0.000        0.000
  WS01009841           JUNCTION        4.00          0.000        0.000
  WS02000078           JUNCTION        4.00          0.000        0.000
  WS02000112           JUNCTION        4.00          0.000        0.000
  WS02000136           JUNCTION        4.00          0.000        0.000
  WS02004053           JUNCTION        4.00          0.000        0.000
  WS02004997           JUNCTION        3.88          5.784        0.216
  WS02006183           JUNCTION        4.00          0.000        0.000
  WS02618401           JUNCTION        4.00          0.000        0.000
  WS8802               JUNCTION        4.00          0.000        4.942
  WSA1649              JUNCTION        4.00          0.000        0.000
  XR-Inflow            JUNCTION        3.87          5.650        0.000
  WS02004114           JUNCTION        3.88          5.748        0.767
  
  
  *********************
  Node Flooding Summary
  *********************
  
  Flooding refers to all water that overflows a node, whether it ponds or not.
  --------------------------------------------------------------------------
                                                             Total   Maximum
                                 Maximum   Time of Max       Flood    Ponded
                        Hours       Rate    Occurrence      Volume     Depth
  Node                 Flooded       MLD   days hr:min    10^6 ltr    Meters
  --------------------------------------------------------------------------
  XR-Inflow               0.94     17.46      0  03:00       0.316     0.000
  XR-storage              1.92     31.62      0  03:00       2.119     0.000
  JK-storage              2.13      9.03      0  03:01       0.491     0.000
  
  
  **********************
  Storage Volume Summary
  **********************
  
  --------------------------------------------------------------------------------------------------
                         Average     Avg  Evap Exfil       Maximum     Max    Time of Max    Maximum
                          Volume    Pcnt  Pcnt  Pcnt        Volume    Pcnt     Occurrence    Outflow
  Storage Unit           1000 m3    Full  Loss  Loss       1000 m3    Full    days hr:min        MLD
  --------------------------------------------------------------------------------------------------
  XR-storage               0.050      80     0     0         0.063     100       0  02:04      32.48
  CC-storage               0.098      62     0     0         0.142      89       0  03:01      17.28
  JK-storage               0.108      80     0     0         0.136     100       0  01:52       0.00
  
  
  ***********************
  Outfall Loading Summary
  ***********************
  
  ---------------------------------------------------------------------------------------------------------------------------------
                         Flow       Avg       Max       Total         Total         Total         Total         Total         Total
                         Freq      Flow      Flow      Volume           COD         NH3-N            TN            TP            SS
  Outfall Node           Pcnt       MLD       MLD    10^6 ltr            kg            kg            kg            kg            kg
  ---------------------------------------------------------------------------------------------------------------------------------
  outfall-2              0.00      0.00      0.00       0.000         0.000         0.000         0.000         0.000         0.000
  outfall-5              0.00      0.00      0.00       0.000         0.000         0.000         0.000         0.000         0.000
  outfall-14             0.00      0.00      0.00       0.000         0.000         0.000         0.000         0.000         0.000
  outfall-16             0.00      0.00      0.00       0.000         0.000         0.000         0.000         0.000         0.000
  12                    99.98     51.99     81.27       7.894      1049.969         0.000         0.000         0.000         0.000
  ---------------------------------------------------------------------------------------------------------------------------------
  System                20.00     51.99     81.27       7.894      1049.969         0.000         0.000         0.000         0.000
  
  
  ********************
  Link Flow Summary
  ********************
  
  -----------------------------------------------------------------------------
                                 Maximum  Time of Max   Maximum    Max/    Max/
                                  |Flow|   Occurrence   |Veloc|    Full    Full
  Link                 Type          MLD  days hr:min     m/sec    Flow   Depth
  -----------------------------------------------------------------------------
  WSL49                CONDUIT     86.35     0  03:07      2.02    1.07    0.50
  WSL1465              CONDUIT     36.30     0  03:08      1.66    0.33    0.51
  WSL1472              CONDUIT     74.68     0  03:03      1.69    0.85    0.46
  WSL1475              CONDUIT     94.65     0  03:23      2.55    1.01    0.33
  WSL1476              CONDUIT      5.09     0  03:07      0.40    0.02    0.44
  WSL1477              CONDUIT      6.28     0  03:07      1.93    0.25    0.19
  WSL1490              CONDUIT     33.83     0  01:45      1.39    0.55    0.41
  WSL1491              CONDUIT     34.06     0  03:10      1.45    0.20    0.43
  WSL1492              CONDUIT     34.72     0  03:07      1.39    0.53    0.48
  WSL1507              CONDUIT      0.07     0  03:03      0.11    0.00    0.11
  WSL1508              CONDUIT      2.59     0  03:01      0.64    0.07    0.15
  WSL1512              CONDUIT      2.59     0  03:02      0.46    0.02    0.14
  WSL1513              CONDUIT      2.66     0  03:04      0.39    0.16    0.22
  WSL1515              CONDUIT     50.43     0  03:03      2.26    0.49    0.28
  WSL1516              CONDUIT      5.43     0  03:07      3.34    0.02    0.12
  WSL1518              CONDUIT      4.66     0  03:01      0.65    0.09    0.22
  WSL1519              CONDUIT      4.66     0  03:02      0.62    0.12    0.23
  WSL1521              CONDUIT      4.69     0  03:03      0.68    0.13    0.23
  WSL1543              CONDUIT      4.66     0  03:02      0.60    0.15    0.23
  WSL1961              CONDUIT     33.19     0  01:24      3.07    0.07    0.27
  WSL1964              CONDUIT     33.64     0  01:44      1.38    0.18    0.34
  WSL2010              CONDUIT     31.27     0  02:59      1.25    0.40    0.42
  WSL2011              CONDUIT     31.40     0  02:59      1.12    0.20    0.46
  WSL2012              CONDUIT     31.53     0  02:59      0.95    0.48    0.50
  WSL2013              CONDUIT     32.85     0  03:00      1.01    0.82    0.49
  WSL2014              CONDUIT     35.65     0  03:00      1.14    0.57    0.47
  WSL2015              CONDUIT     35.73     0  03:01      1.21    0.48    0.45
  WSL2016              CONDUIT     37.70     0  03:01      1.33    0.43    0.43
  WSL2017              CONDUIT     37.82     0  03:01      1.44    0.46    0.41
  WSL2018              CONDUIT     40.61     0  03:02      1.91    0.24    0.35
  WSL2019              CONDUIT     41.39     0  03:02      1.80    0.24    0.40
  WSL2028              CONDUIT     31.36     0  02:59      1.21    0.34    0.42
  WSL2029              CONDUIT     38.14     0  03:01      1.68    0.48    0.37
  WSL2038              CONDUIT      4.34     0  03:04      0.58    0.22    0.42
  WSL2039              CONDUIT      7.86     0  02:52      1.32    0.40    0.48
  WSL2041              CONDUIT      4.80     0  02:53      0.81    0.24    0.45
  WSL2294              CONDUIT     28.42     0  02:56      1.12    0.95    0.57
  WSL2295              CONDUIT     28.51     0  02:56      1.32    1.28    0.50
  WSL2296              CONDUIT     31.29     0  02:57      1.83    0.18    0.42
  WSL2297              CONDUIT     31.39     0  02:57      1.20    0.60    0.42
  WSL2298              CONDUIT     31.04     0  02:57      2.09    1.43    0.38
  WSL2301              CONDUIT     31.33     0  02:58      1.23    0.29    0.41
  WSL2302              CONDUIT     31.33     0  02:58      1.21    0.38    0.42
  WSL2441              CONDUIT     28.32     0  02:55      1.08    0.73    0.60
  WSL2442              CONDUIT     24.79     0  02:55      1.26    0.63    0.63
  WSL2443              CONDUIT     25.10     0  02:51      1.42    0.39    0.54
  WSL2444              CONDUIT     24.80     0  02:50      1.68    0.39    0.46
  WSL2446              CONDUIT     23.16     0  03:09      1.64    0.40    0.44
  WSL2447              CONDUIT     22.80     0  02:54      1.46    1.17    0.48
  WSL2448              CONDUIT     22.67     0  02:54      1.30    0.64    0.52
  WSL2449              CONDUIT     22.60     0  03:08      1.21    0.79    0.55
  WSL2450              CONDUIT     22.47     0  02:53      1.22    0.47    0.55
  WSL2451              CONDUIT     22.50     0  03:08      1.18    1.47    0.56
  WSL2452              CONDUIT     22.75     0  03:07      1.25    0.43    0.55
  WSL2454              CONDUIT     23.03     0  03:07      1.45    0.54    0.50
  WSL2478              CONDUIT     23.29     0  03:06      1.31    0.82    0.53
  WSL2479              CONDUIT     21.45     0  02:47      1.24    0.41    0.52
  WSL2480              CONDUIT     21.37     0  02:46      1.26    0.99    0.51
  WSL2482              CONDUIT     21.80     0  02:46      1.22    0.57    0.53
  WSL2484              CONDUIT     21.26     0  02:45      1.88    0.30    0.47
  WSL2493              CONDUIT     24.99     0  02:55      1.08    0.42    0.58
  WSL2867              CONDUIT     45.83     0  03:00      3.22    0.09    0.21
  WSL2868              CONDUIT     44.56     0  03:02      1.63    0.08    0.33
  WSL348               CONDUIT     63.16     0  03:00      1.88    0.58    1.00
  WSL175               CONDUIT     63.56     0  03:00      2.29    2.14    1.00
  WSL1467              CONDUIT     74.54     0  03:04      1.61    0.40    0.48
  WSL1473              CONDUIT     74.92     0  03:03      1.77    0.31    0.46
  XRpipe               CONDUIT     64.10     0  03:00      2.54    0.16    1.00
  8                    CONDUIT      0.00     0  00:00      0.00    0.00    0.00
  19                   CONDUIT      0.00     0  00:00      0.00    0.00    0.00
  17                   CONDUIT      0.00     0  00:00      0.00    0.00    0.00
  4                    CONDUIT      0.00     0  00:00      0.00    0.00    0.00
  2                    CONDUIT     81.27     0  03:06      3.54    0.29    0.37
  XR-Pump-1            PUMP         8.12     0  00:08              1.00
  XR-Pump-3            PUMP         8.12     0  00:09              1.00
  XR-Pump-2            PUMP         8.12     0  00:09              1.00
  XR-Pump-4            PUMP         8.12     0  01:22              1.00
  CC-Pump-1            PUMP        17.28     0  01:35              1.00
  CC-Pump-2            PUMP         0.00     0  00:00              0.00
  JK-Pump-1            PUMP         0.00     0  00:00              0.00
  JK-Pump-2            PUMP         0.00     0  00:00              0.00
  
  
  ***************************
  Flow Classification Summary
  ***************************
  
  -------------------------------------------------------------------------------------
                      Adjusted    ---------- Fraction of Time in Flow Class ---------- 
                       /Actual         Up    Down  Sub   Sup   Up    Down  Norm  Inlet 
  Conduit               Length    Dry  Dry   Dry   Crit  Crit  Crit  Crit  Ltd   Ctrl  
  -------------------------------------------------------------------------------------
  WSL49                   1.00   0.00  0.00  0.00  1.00  0.00  0.00  0.00  0.00  0.00
  WSL1465                 1.00   0.00  0.00  0.00  1.00  0.00  0.00  0.00  0.10  0.00
  WSL1472                 1.00   0.00  0.00  0.00  1.00  0.00  0.00  0.00  0.00  0.00
  WSL1475                 1.00   0.00  0.00  0.00  0.12  0.88  0.00  0.00  0.00  0.00
  WSL1476                 1.00   0.00  0.00  0.00  1.00  0.00  0.00  0.00  1.00  0.00
  WSL1477                 1.00   0.00  0.00  0.00  0.01  0.99  0.00  0.00  0.41  0.00
  WSL1490                 1.00   0.00  0.00  0.00  1.00  0.00  0.00  0.00  0.00  0.00
  WSL1491                 1.00   0.00  0.00  0.00  1.00  0.00  0.00  0.00  0.04  0.00
  WSL1492                 1.00   0.00  0.00  0.00  1.00  0.00  0.00  0.00  0.00  0.00
  WSL1507                 1.00   0.00  0.00  0.00  1.00  0.00  0.00  0.00  0.88  0.00
  WSL1508                 1.00   0.00  0.00  0.00  1.00  0.00  0.00  0.00  0.00  0.00
  WSL1512                 1.00   0.00  0.00  0.00  1.00  0.00  0.00  0.00  1.00  0.00
  WSL1513                 1.00   0.00  0.00  0.00  1.00  0.00  0.00  0.00  0.00  0.00
  WSL1515                 1.00   0.00  0.00  0.00  0.10  0.90  0.00  0.00  0.04  0.00
  WSL1516                 1.00   0.00  0.00  0.00  0.00  1.00  0.00  0.00  1.00  0.00
  WSL1518                 1.00   0.00  0.00  0.00  1.00  0.00  0.00  0.00  0.76  0.00
  WSL1519                 1.00   0.00  0.00  0.00  1.00  0.00  0.00  0.00  0.35  0.00
  WSL1521                 1.00   0.00  0.00  0.00  1.00  0.00  0.00  0.00  0.02  0.00
  WSL1543                 1.00   0.00  0.00  0.00  1.00  0.00  0.00  0.00  0.02  0.00
  WSL1961                 1.00   0.00  0.00  0.00  0.02  0.98  0.00  0.00  0.97  0.00
  WSL1964                 1.00   0.00  0.00  0.00  1.00  0.00  0.00  0.00  0.05  0.00
  WSL2010                 1.00   0.00  0.00  0.00  1.00  0.00  0.00  0.00  0.00  0.00
  WSL2011                 1.00   0.00  0.00  0.00  1.00  0.00  0.00  0.00  0.27  0.00
  WSL2012                 1.00   0.00  0.00  0.00  1.00  0.00  0.00  0.00  0.01  0.00
  WSL2013                 1.00   0.00  0.00  0.00  1.00  0.00  0.00  0.00  0.00  0.00
  WSL2014                 1.00   0.00  0.00  0.00  1.00  0.00  0.00  0.00  0.00  0.00
  WSL2015                 1.00   0.00  0.00  0.00  1.00  0.00  0.00  0.00  0.02  0.00
  WSL2016                 1.00   0.00  0.00  0.00  1.00  0.00  0.00  0.00  0.01  0.00
  WSL2017                 1.00   0.00  0.00  0.00  1.00  0.00  0.00  0.00  0.04  0.00
  WSL2018                 1.00   0.00  0.00  0.00  0.01  0.99  0.00  0.00  0.23  0.00
  WSL2019                 1.00   0.00  0.00  0.00  0.33  0.67  0.00  0.00  0.11  0.00
  WSL2028                 1.00   0.00  0.00  0.00  1.00  0.00  0.00  0.00  0.07  0.00
  WSL2029                 1.00   0.00  0.00  0.00  0.59  0.41  0.00  0.00  0.00  0.00
  WSL2038                 1.00   0.00  0.00  0.00  1.00  0.00  0.00  0.00  0.03  0.00
  WSL2039                 1.00   0.00  0.00  0.00  0.90  0.10  0.00  0.00  0.01  0.00
  WSL2041                 1.00   0.00  0.00  0.00  1.00  0.00  0.00  0.00  0.42  0.00
  WSL2294                 1.00   0.00  0.00  0.00  1.00  0.00  0.00  0.00  0.00  0.00
  WSL2295                 1.00   0.00  0.00  0.00  1.00  0.00  0.00  0.00  0.00  0.00
  WSL2296                 1.00   0.00  0.00  0.00  0.26  0.74  0.00  0.00  0.88  0.00
  WSL2297                 1.00   0.00  0.00  0.00  1.00  0.00  0.00  0.00  0.00  0.00
  WSL2298                 1.00   0.00  0.00  0.00  0.06  0.94  0.00  0.00  0.00  0.00
  WSL2301                 1.00   0.00  0.00  0.00  1.00  0.00  0.00  0.00  0.09  0.00
  WSL2302                 1.00   0.00  0.00  0.00  1.00  0.00  0.00  0.00  0.04  0.00
  WSL2441                 1.00   0.00  0.00  0.00  1.00  0.00  0.00  0.00  0.01  0.00
  WSL2442                 1.00   0.00  0.00  0.00  1.00  0.00  0.00  0.00  0.23  0.00
  WSL2443                 1.00   0.00  0.00  0.00  1.00  0.00  0.00  0.00  0.74  0.00
  WSL2444                 1.00   0.00  0.00  0.00  0.02  0.98  0.00  0.00  0.52  0.00
  WSL2446                 1.00   0.00  0.00  0.00  0.08  0.92  0.00  0.00  0.32  0.00
  WSL2447                 1.00   0.00  0.00  0.00  1.00  0.00  0.00  0.00  0.00  0.00
  WSL2448                 1.00   0.00  0.00  0.00  1.00  0.00  0.00  0.00  0.03  0.00
  WSL2449                 1.00   0.00  0.00  0.00  1.00  0.00  0.00  0.00  0.03  0.00
  WSL2450                 1.00   0.00  0.00  0.00  1.00  0.00  0.00  0.00  0.63  0.00
  WSL2451                 1.00   0.00  0.00  0.00  1.00  0.00  0.00  0.00  0.00  0.00
  WSL2452                 1.00   0.00  0.00  0.00  1.00  0.00  0.00  0.00  0.75  0.00
  WSL2454                 1.00   0.00  0.00  0.00  0.99  0.01  0.00  0.00  0.08  0.00
  WSL2478                 1.00   0.00  0.00  0.00  1.00  0.00  0.00  0.00  0.00  0.00
  WSL2479                 1.00   0.00  0.00  0.00  1.00  0.00  0.00  0.00  0.71  0.00
  WSL2480                 1.00   0.00  0.00  0.00  1.00  0.00  0.00  0.00  0.00  0.00
  WSL2482                 1.00   0.00  0.00  0.00  1.00  0.00  0.00  0.00  0.75  0.00
  WSL2484                 1.00   0.00  0.00  0.00  0.97  0.03  0.00  0.00  0.77  0.00
  WSL2493                 1.00   0.00  0.00  0.00  1.00  0.00  0.00  0.00  0.05  0.00
  WSL2867                 1.00   0.00  0.00  0.00  0.00  1.00  0.00  0.00  0.20  0.00
  WSL2868                 1.00   0.00  0.00  0.00  0.98  0.02  0.00  0.00  0.99  0.00
  WSL348                  1.00   0.00  0.00  0.00  1.00  0.00  0.00  0.00  0.01  0.00
  WSL175                  1.00   0.00  0.00  0.00  0.99  0.01  0.00  0.00  0.00  0.00
  WSL1467                 1.00   0.00  0.00  0.00  1.00  0.00  0.00  0.00  0.06  0.00
  WSL1473                 1.00   0.00  0.00  0.00  1.00  0.00  0.00  0.00  0.05  0.00
  XRpipe                  1.00   0.00  0.00  0.00  0.99  0.01  0.00  0.00  0.01  0.00
  8                       1.00   1.00  0.00  0.00  0.00  0.00  0.00  0.00  0.00  0.00
  19                      1.00   1.00  0.00  0.00  0.00  0.00  0.00  0.00  0.00  0.00
  17                      1.00   1.00  0.00  0.00  0.00  0.00  0.00  0.00  0.00  0.00
  4                       1.00   1.00  0.00  0.00  0.00  0.00  0.00  0.00  0.00  0.00
  2                       1.00   0.00  0.00  0.00  0.00  1.00  0.00  0.00  0.20  0.00
  
  
  *************************
  Conduit Surcharge Summary
  *************************
  
  ----------------------------------------------------------------------------
                                                           Hours        Hours 
                         --------- Hours Full --------   Above Full   Capacity
  Conduit                Both Ends  Upstream  Dnstream   Normal Flow   Limited
  ----------------------------------------------------------------------------
  WSL49                       0.01      0.01      0.01      0.02         0.01
  WSL1475                     0.01      0.01      0.01      0.01         0.01
  WSL2295                     0.01      0.01      0.01      0.42         0.01
  WSL2298                     0.01      0.01      0.01      0.56         0.01
  WSL2447                     0.01      0.01      0.01      0.44         0.01
  WSL2451                     0.01      0.01      0.01      0.66         0.01
  WSL348                      3.87      3.87      3.88      0.01         0.01
  WSL175                      3.88      3.88      3.88      2.36         2.47
  XRpipe                      3.88      3.88      3.96      0.01         0.01
  
  
  ***************
  Pumping Summary
  ***************
  
  ---------------------------------------------------------------------------------------------------------
                                                  Min       Avg       Max     Total     Power    % Time Off
                        Percent   Number of      Flow      Flow      Flow    Volume     Usage    Pump Curve
  Pump                 Utilized   Start-Ups       MLD       MLD       MLD  10^6 ltr     Kw-hr    Low   High
  ---------------------------------------------------------------------------------------------------------
  XR-Pump-1               96.32           1      0.00      8.12      8.12     1.303      6.78    0.0    0.0
  XR-Pump-3               91.28          18      0.00      8.12      8.12     1.235      6.27    0.0    0.0
  XR-Pump-2               96.18           1      0.00      8.12      8.12     1.301      6.77    0.0    0.0
  XR-Pump-4               61.68          15      0.00      8.12      8.12     0.835      3.29    0.0    0.0
  CC-Pump-1               20.87           7      0.00     17.28     17.28     0.601      1.48    0.0    0.0
  CC-Pump-2                0.00           0      0.00      0.00      0.00     0.000      0.00    0.0    0.0
  JK-Pump-1                0.00           0      0.00      0.00      0.00     0.000      0.00    0.0    0.0
  JK-Pump-2                0.00           0      0.00      0.00      0.00     0.000      0.00    0.0    0.0
  
  
  ***************************
  Link Pollutant Load Summary
  ***************************
  
  ------------------------------------------------------------------------------------------
                                 COD         NH3-N            TN            TP            SS
  Link                            kg            kg            kg            kg            kg
  ------------------------------------------------------------------------------------------
  WSL49                     1015.020         0.000         0.000         0.000         0.000
  WSL1465                    628.394         0.000         0.000         0.000         0.000
  WSL1472                    975.873         0.000         0.000         0.000         0.000
  WSL1475                   1033.767         0.000         0.000         0.000         0.000
  WSL1476                     35.891         0.000         0.000         0.000         0.000
  WSL1477                     33.936         0.000         0.000         0.000         0.000
  WSL1490                    613.754         0.000         0.000         0.000         0.000
  WSL1491                    617.765         0.000         0.000         0.000         0.000
  WSL1492                    624.548         0.000         0.000         0.000         0.000
  WSL1507                      0.507         0.000         0.000         0.000         0.000
  WSL1508                     18.996         0.000         0.000         0.000         0.000
  WSL1512                     19.429         0.000         0.000         0.000         0.000
  WSL1513                     21.060         0.000         0.000         0.000         0.000
  WSL1515                    335.701         0.000         0.000         0.000         0.000
  WSL1516                     34.589         0.000         0.000         0.000         0.000
  WSL1518                     31.185         0.000         0.000         0.000         0.000
  WSL1519                     31.912         0.000         0.000         0.000         0.000
  WSL1521                     33.007         0.000         0.000         0.000         0.000
  WSL1543                     31.478         0.000         0.000         0.000         0.000
  WSL1961                    600.739         0.000         0.000         0.000         0.000
  WSL1964                    609.653         0.000         0.000         0.000         0.000
  WSL2010                    226.212         0.000         0.000         0.000         0.000
  WSL2011                    231.672         0.000         0.000         0.000         0.000
  WSL2012                    237.319         0.000         0.000         0.000         0.000
  WSL2013                    245.164         0.000         0.000         0.000         0.000
  WSL2014                    280.758         0.000         0.000         0.000         0.000
  WSL2015                    282.655         0.000         0.000         0.000         0.000
  WSL2016                    306.280         0.000         0.000         0.000         0.000
  WSL2017                    309.193         0.000         0.000         0.000         0.000
  WSL2018                    327.496         0.000         0.000         0.000         0.000
  WSL2019                    329.882         0.000         0.000         0.000         0.000
  WSL2028                    221.095         0.000         0.000         0.000         0.000
  WSL2029                    314.775         0.000         0.000         0.000         0.000
  WSL2038                     14.767         0.000         0.000         0.000         0.000
  WSL2039                     24.887         0.000         0.000         0.000         0.000
  WSL2041                     19.886         0.000         0.000         0.000         0.000
  WSL2294                    197.845         0.000         0.000         0.000         0.000
  WSL2295                    199.273         0.000         0.000         0.000         0.000
  WSL2296                    209.013         0.000         0.000         0.000         0.000
  WSL2297                    213.041         0.000         0.000         0.000         0.000
  WSL2298                    203.131         0.000         0.000         0.000         0.000
  WSL2301                    214.688         0.000         0.000         0.000         0.000
  WSL2302                    220.146         0.000         0.000         0.000         0.000
  WSL2441                    196.357         0.000         0.000         0.000         0.000
  WSL2442                    142.357         0.000         0.000         0.000         0.000
  WSL2443                    140.682         0.000         0.000         0.000         0.000
  WSL2444                    137.355         0.000         0.000         0.000         0.000
  WSL2446                    135.248         0.000         0.000         0.000         0.000
  WSL2447                    131.858         0.000         0.000         0.000         0.000
  WSL2448                    128.246         0.000         0.000         0.000         0.000
  WSL2449                    124.561         0.000         0.000         0.000         0.000
  WSL2450                    121.929         0.000         0.000         0.000         0.000
  WSL2451                    120.476         0.000         0.000         0.000         0.000
  WSL2452                    118.727         0.000         0.000         0.000         0.000
  WSL2454                    114.521         0.000         0.000         0.000         0.000
  WSL2478                    113.117         0.000         0.000         0.000         0.000
  WSL2479                    103.706         0.000         0.000         0.000         0.000
  WSL2480                    100.821         0.000         0.000         0.000         0.000
  WSL2482                     96.800         0.000         0.000         0.000         0.000
  WSL2484                     89.992         0.000         0.000         0.000         0.000
  WSL2493                    145.362         0.000         0.000         0.000         0.000
  WSL2867                    337.335         0.000         0.000         0.000         0.000
  WSL2868                    341.226         0.000         0.000         0.000         0.000
  WSL348                     807.941         0.000         0.000         0.000         0.000
  WSL175                     815.210         0.000         0.000         0.000         0.000
  WSL1467                    970.597         0.000         0.000         0.000         0.000
  WSL1473                    979.887         0.000         0.000         0.000         0.000
  XRpipe                     828.574         0.000         0.000         0.000         0.000
  8                            0.000         0.000         0.000         0.000         0.000
  19                           0.000         0.000         0.000         0.000         0.000
  17                           0.000         0.000         0.000         0.000         0.000
  4                            0.000         0.000         0.000         0.000         0.000
  2                         1049.969         0.000         0.000         0.000         0.000
  XR-Pump-1                  169.362         0.000         0.000         0.000         0.000
  XR-Pump-3                  157.984         0.000         0.000         0.000         0.000
  XR-Pump-2                  169.048         0.000         0.000         0.000         0.000
  XR-Pump-4                   92.372         0.000         0.000         0.000         0.000
  CC-Pump-1                   67.939         0.000         0.000         0.000         0.000
  CC-Pump-2                    0.000         0.000         0.000         0.000         0.000
  JK-Pump-1                    0.000         0.000         0.000         0.000         0.000
  JK-Pump-2                    0.000         0.000         0.000         0.000         0.000
  

  Analysis begun on:  Wed Mar 20 15:02:23 2019
  Analysis ended on:  Wed Mar 20 15:02:23 2019
  Total elapsed time: < 1 sec