
  EPA STORM WATER MANAGEMENT MODEL - VERSION 5.1 (Build 5.3.0.dev0)
  --------------------------------------------------------------

  
  *********************************************************
  NOTE: The summary statistics displayed in this report are
  based on results found at every computational time step,  
  not just on results from each reporting time step.
  *********************************************************
  
  ****************
  Analysis Options
  ****************
  Flow Units ............... MLD
  Process Models:
    Rainfall/Runoff ........ YES
    RDII ................... NO
    Snowmelt ............... NO
    Groundwater ............ NO
    Flow Routing ........... YES
    Ponding Allowed ........ NO
    Water Quality .......... YES
  Infiltration Method ...... GREEN_AMPT
  Flow Routing Method ...... DYNWAVE
  Surcharge Method ......... EXTRAN
  Starting Date ............ 08/28/2015 08:00:00
  Ending Date .............. 08/28/2015 12:00:00
  Antecedent Dry Days ...... 4.0
  Report Time Step ......... 00:01:00
  Wet Time Step ............ 00:01:00
  Dry Time Step ............ 00:01:00
  Routing Time Step ........ 5.00 sec
  Variable Time Step ....... YES
  Maximum Trials ........... 8
  Number of Threads ........ 1
  Head Tolerance ........... 0.001500 m
  
  
  **************************        Volume         Depth
  Runoff Quantity Continuity     hectare-m            mm
  **************************     ---------       -------
  Total Precipitation ......         1.040        16.819
  Evaporation Loss .........         0.000         0.000
  Infiltration Loss ........         0.480         7.767
  Surface Runoff ...........         0.226         3.657
  Final Storage ............         0.334         5.397
  Continuity Error (%) .....        -0.006
  
  
  **************************           COD         NH3-N            TN            TP            SS
  Runoff Quality Continuity             kg            kg            kg            kg            kg
  **************************    ----------    ----------    ----------    ----------    ----------
  Initial Buildup ..........      2504.640         0.000         0.000         0.000         0.000
  Surface Buildup ..........        20.042         0.000         0.000         0.000         0.000
  Wet Deposition ...........         0.000         0.000         0.000         0.000         0.000
  Sweeping Removal .........         0.000         0.000         0.000         0.000         0.000
  Infiltration Loss ........        88.480         0.000         0.000         0.000         0.000
  BMP Removal ..............         0.000         0.000         0.000         0.000         0.000
  Surface Runoff ...........       356.855         0.000         0.000         0.000         0.000
  Remaining Buildup ........      2077.948         0.000         0.000         0.000         0.000
  Continuity Error (%) .....         0.055         0.000         0.000         0.000         0.000
  
  
  **************************        Volume        Volume
  Flow Routing Continuity        hectare-m      10^6 ltr
  **************************     ---------     ---------
  Dry Weather Inflow .......         0.000         0.000
  Wet Weather Inflow .......         0.226         2.258
  Groundwater Inflow .......         0.000         0.000
  RDII Inflow ..............         0.000         0.000
  External Inflow ..........         0.085         0.854
  External Outflow .........         0.368         3.684
  Flooding Loss ............         0.000         0.000
  Evaporation Loss .........         0.000         0.000
  Exfiltration Loss ........         0.000         0.000
  Initial Stored Volume ....         0.000         0.000
  Final Stored Volume ......         0.046         0.463
  Continuity Error (%) .....       -33.289
  
  
  **************************           COD         NH3-N            TN            TP            SS
  Quality Routing Continuity            kg            kg            kg            kg            kg
  **************************    ----------    ----------    ----------    ----------    ----------
  Dry Weather Inflow .......         0.000         0.000         0.000         0.000         0.000
  Wet Weather Inflow .......       356.242         0.000         0.000         0.000         0.000
  Groundwater Inflow .......         0.000         0.000         0.000         0.000         0.000
  RDII Inflow ..............         0.000         0.000         0.000         0.000         0.000
  External Inflow ..........       142.556         0.000         0.000         0.000         0.000
  External Outflow .........       264.011         0.000         0.000         0.000         0.000
  Flooding Loss ............         0.000         0.000         0.000         0.000         0.000
  Exfiltration Loss ........         0.000         0.000         0.000         0.000         0.000
  Mass Reacted .............         0.000         0.000         0.000         0.000         0.000
  Initial Stored Mass ......         0.000         0.000         0.000         0.000         0.000
  Final Stored Mass ........        72.548         0.000         0.000         0.000         0.000
  Continuity Error (%) .....        32.526         0.000         0.000         0.000         0.000
  
  
  *************************
  Highest Continuity Errors
  *************************
  Node WS02006242 (3.60%)
  Node WS02006230 (3.45%)
  Node WS02006243 (3.35%)
  Node WS02006240 (3.25%)
  Node WS02006239 (3.00%)
  
  
  ***************************
  Time-Step Critical Elements
  ***************************
  Link 8 (91.34%)
  Link WSL2448 (6.48%)
  
  
  ********************************
  Highest Flow Instability Indexes
  ********************************
  Link WSL2302 (2)
  Link WSL2301 (2)
  Link WSL2297 (2)
  Link WSL2296 (2)
  Link WSL2493 (1)
  
  
  *************************
  Routing Time Step Summary
  *************************
  Minimum Time Step           :     0.26 sec
  Average Time Step           :     0.82 sec
  Maximum Time Step           :     5.00 sec
  Percent in Steady State     :    -0.00
  Average Iterations per Step :     2.06
  Percent Not Converging      :     0.30
  
  
  ***************************
  Subcatchment Runoff Summary
  ***************************
  
  ------------------------------------------------------------------------------------------------------------------------------
                            Total      Total      Total      Total     Imperv       Perv      Total       Total     Peak  Runoff
                           Precip      Runon       Evap      Infil     Runoff     Runoff     Runoff      Runoff   Runoff   Coeff
  Subcatchment                 mm         mm         mm         mm         mm         mm         mm    10^6 ltr      MLD
  ------------------------------------------------------------------------------------------------------------------------------
  1                         16.82      18.41       0.00       9.12       8.37       7.59      15.96        0.19     3.53   0.453
  2                         16.82       0.00       0.00       7.40       4.02       1.42       5.45        0.18     3.84   0.324
  3                         16.82       0.00       0.00       7.44       3.97       1.20       5.17        0.26     5.48   0.307
  35                        16.82       0.00       0.00       7.39       4.03       1.49       5.52        0.17     3.51   0.328
  36                        16.82      10.75       0.00       8.81       6.37       2.91       9.28        0.55    10.26   0.337
  40                        16.82       2.90       0.00       7.82       4.67       1.85       6.52        0.25     5.12   0.331
  41                        16.82       0.00       0.00       7.34       4.07       1.77       5.85        0.11     2.39   0.348
  42                        16.82       0.00       0.00       7.36       4.06       1.67       5.73        0.13     2.75   0.340
  43                        16.82       0.00       0.00       7.07       4.16       3.16       7.32        0.03     0.58   0.435
  44                        16.82     154.41       0.00      14.24      41.83      88.60     130.43        0.48     9.28   0.762
  45                        16.82       0.00       0.00       7.25       4.12       2.24       6.36        0.07     1.40   0.378
  46                        16.82       9.05       0.00       8.46       6.15       3.86      10.01        0.21     4.06   0.387
  47                        16.82       0.00       0.00       7.26       4.11       2.19       6.30        0.07     1.49   0.374
  48                        16.82       4.42       0.00       7.89       5.12       3.03       8.15        0.13     2.56   0.384
  55                        16.82       6.60       0.00       8.01       5.69       4.52      10.21        0.08     1.67   0.436
  56                        16.82       9.97       0.00       8.55       6.36       4.09      10.45        0.22     4.21   0.390
  57                        16.82       0.00       0.00       7.43       3.97       1.21       5.18        0.26     5.39   0.308
  59                        16.82       0.00       0.00       7.22       4.13       2.41       6.54        0.05     1.18   0.389
  60                        16.82      14.35       0.00       8.63       7.59       8.43      16.02        0.08     1.62   0.514
  61                        16.82       0.00       0.00       7.52       3.73       0.69       4.42        0.80    16.09   0.263
  64                        16.82       0.00       0.00       7.27       4.11       2.12       6.23        0.07     1.59   0.371
  
  
  ****************************
  Subcatchment Washoff Summary
  ****************************
  
  ------------------------------------------------------------------------------------------
                                 COD         NH3-N            TN            TP            SS
  Subcatchment                    kg            kg            kg            kg            kg
  ------------------------------------------------------------------------------------------
  1                           29.938         0.000         0.000         0.000         0.000
  2                            0.000         0.000         0.000         0.000         0.000
  3                            0.000         0.000         0.000         0.000         0.000
  35                          27.784         0.000         0.000         0.000         0.000
  36                         164.631         0.000         0.000         0.000         0.000
  40                          52.684         0.000         0.000         0.000         0.000
  41                          19.650         0.000         0.000         0.000         0.000
  42                          22.271         0.000         0.000         0.000         0.000
  43                           5.406         0.000         0.000         0.000         0.000
  44                         150.654         0.000         0.000         0.000         0.000
  45                          12.066         0.000         0.000         0.000         0.000
  46                          64.294         0.000         0.000         0.000         0.000
  47                          12.778         0.000         0.000         0.000         0.000
  48                          31.507         0.000         0.000         0.000         0.000
  55                          23.936         0.000         0.000         0.000         0.000
  56                          69.561         0.000         0.000         0.000         0.000
  57                          41.094         0.000         0.000         0.000         0.000
  59                          10.322         0.000         0.000         0.000         0.000
  60                          26.810         0.000         0.000         0.000         0.000
  61                         111.233         0.000         0.000         0.000         0.000
  64                          13.566         0.000         0.000         0.000         0.000
  ------------------------------------------------------------------------------------------
  System                     890.187         0.000         0.000         0.000         0.000
  
  
  ******************
  Node Depth Summary
  ******************
  
  ---------------------------------------------------------------------------------
                                 Average  Maximum  Maximum  Time of Max    Reported
                                   Depth    Depth      HGL   Occurrence   Max Depth
  Node                 Type       Meters   Meters   Meters  days hr:min      Meters
  ---------------------------------------------------------------------------------
  WS01000070           JUNCTION     0.00     0.00     0.00     0  00:00        0.00
  WS01000323           JUNCTION     0.00     0.00     0.00     0  00:00        0.00
  WS01000533           JUNCTION     0.00     0.00     6.86     0  00:00        0.00
  WS01005172           JUNCTION     0.00     0.00     0.00     0  00:00        0.00
  WS01005181           JUNCTION     0.00     0.00     0.00     0  00:00        0.00
  WS01009841           JUNCTION     0.00     0.00     0.00     0  00:00        0.00
  WS02000078           JUNCTION     0.00     0.00     0.00     0  00:00        0.00
  WS02000112           JUNCTION     0.00     0.00     0.00     0  00:00        0.00
  WS02000136           JUNCTION     0.00     0.00     0.00     0  00:00        0.00
  WS02004053           JUNCTION     0.00     0.00     0.00     0  00:00        0.00
  WS02004401           JUNCTION     2.21     2.35     8.35     0  02:56        2.35
  WS02005192           JUNCTION     0.49     0.70     8.57     0  02:44        0.70
  WS02005193           JUNCTION     0.53     0.75     8.57     0  02:44        0.75
  WS02005196           JUNCTION     0.51     0.72     8.57     0  02:44        0.72
  WS02006109           JUNCTION     1.62     1.77     8.39     0  03:00        1.77
  WS02006110           JUNCTION     1.63     1.79     8.39     0  03:00        1.78
  WS02006111           JUNCTION     1.64     1.79     8.37     0  03:00        1.79
  WS02006112           JUNCTION     2.09     2.24     8.36     0  03:00        2.24
  WS02006113           JUNCTION     1.64     1.79     8.38     0  03:00        1.79
  WS02006115           JUNCTION     2.11     2.26     8.36     0  03:00        2.26
  WS02006116           JUNCTION     2.17     2.31     8.35     0  03:00        2.31
  WS02006183           JUNCTION     0.00     0.00     0.00     0  00:00        0.00
  WS02006228           JUNCTION     1.59     1.75     8.40     0  03:00        1.75
  WS02006229           JUNCTION     1.55     1.71     8.40     0  03:00        1.71
  WS02006230           JUNCTION     1.49     1.65     8.40     0  02:57        1.65
  WS02006231           JUNCTION     1.35     1.50     8.40     0  02:55        1.50
  WS02006232           JUNCTION     1.22     1.37     8.40     0  03:00        1.37
  WS02006234           JUNCTION     1.10     1.24     8.40     0  03:00        1.24
  WS02006235           JUNCTION     1.09     1.23     8.40     0  03:00        1.23
  WS02006238           JUNCTION     1.09     1.22     8.40     0  03:00        1.22
  WS02006239           JUNCTION     1.06     1.19     8.40     0  03:00        1.19
  WS02006242           JUNCTION     0.97     1.10     8.40     0  03:00        1.10
  WS02006240           JUNCTION     0.98     1.11     8.40     0  03:00        1.11
  WS02006243           JUNCTION     0.86     0.98     8.40     0  02:55        0.98
  WS02006245           JUNCTION     0.79     0.91     8.40     0  02:55        0.91
  WS02006247           JUNCTION     0.78     0.89     8.40     0  02:55        0.89
  WS02006248           JUNCTION     0.70     0.81     8.40     0  02:55        0.81
  WS02006249           JUNCTION     0.71     0.84     8.44     0  02:52        0.84
  WS02006251           JUNCTION     0.67     0.86     8.53     0  02:49        0.86
  WS02006253           JUNCTION     0.55     0.77     8.57     0  02:44        0.77
  WS02618401           JUNCTION     0.00     0.00     0.00     0  00:00        0.00
  WSA1649              JUNCTION     0.00     0.00     0.00     0  00:00        0.00
  outfall-5            OUTFALL      0.14     0.21     7.88     0  02:55        0.21
  outfall-14           OUTFALL      0.10     0.15     7.81     0  02:56        0.15
  outfall-16           OUTFALL      0.00     0.00     8.39     0  00:00        0.00
  CC-storage           STORAGE      0.00     0.00     3.18     0  00:00        0.00
  
  
  *******************
  Node Inflow Summary
  *******************
  
  -------------------------------------------------------------------------------------------------
                                  Maximum  Maximum                  Lateral       Total        Flow
                                  Lateral    Total  Time of Max      Inflow      Inflow     Balance
                                   Inflow   Inflow   Occurrence      Volume      Volume       Error
  Node                 Type           MLD      MLD  days hr:min    10^6 ltr    10^6 ltr     Percent
  -------------------------------------------------------------------------------------------------
  WS01000070           JUNCTION      0.00     0.00     0  00:00           0           0       0.000 ltr
  WS01000323           JUNCTION      0.00     0.00     0  00:00           0           0       0.000 ltr
  WS01000533           JUNCTION      0.00     0.00     0  00:00           0           0       0.000 ltr
  WS01005172           JUNCTION      0.00     0.00     0  00:00           0           0       0.000 ltr
  WS01005181           JUNCTION      0.00     0.00     0  00:00           0           0       0.000 ltr
  WS01009841           JUNCTION      0.00     0.00     0  00:00           0           0       0.000 ltr
  WS02000078           JUNCTION      0.00     0.00     0  00:00           0           0       0.000 ltr
  WS02000112           JUNCTION      0.00     0.00     0  00:00           0           0       0.000 ltr
  WS02000136           JUNCTION      0.00     0.00     0  00:00           0           0       0.000 ltr
  WS02004053           JUNCTION      0.00     0.00     0  00:00           0           0       0.000 ltr
  WS02004401           JUNCTION      0.05    22.99     0  02:56     0.00897        1.43       2.019
  WS02005192           JUNCTION      5.49     5.49     0  02:47       0.276       0.277       0.943
  WS02005193           JUNCTION      0.09     5.68     0  02:46      0.0146       0.317       2.354
  WS02005196           JUNCTION      0.12     5.60     0  02:47       0.019       0.299       2.291
  WS02006109           JUNCTION      0.08    17.02     0  03:00      0.0135        1.22       2.036
  WS02006110           JUNCTION      0.08    17.08     0  03:00      0.0132         1.2       2.085
  WS02006111           JUNCTION      0.24    22.49     0  02:56      0.0366        1.47       1.421
  WS02006112           JUNCTION      0.18    22.65     0  02:56      0.0273        1.48       2.245
  WS02006113           JUNCTION      5.63    22.28     0  02:56        0.29        1.46       1.645
  WS02006115           JUNCTION      0.08    22.73     0  02:56      0.0134        1.46       2.645
  WS02006116           JUNCTION      0.24    22.94     0  02:56       0.036        1.47       2.397
  WS02006183           JUNCTION      0.00     0.00     0  00:00           0           0       0.000 ltr
  WS02006228           JUNCTION      9.44    16.95     0  03:00        0.51        1.23       1.506
  WS02006229           JUNCTION      0.13     8.54     0  02:45        0.02       0.737       2.247
  WS02006230           JUNCTION      0.07     8.45     0  02:44      0.0116       0.737       3.569
  WS02006231           JUNCTION      0.13     8.38     0  02:44      0.0205       0.734       2.118
  WS02006232           JUNCTION      3.92     8.26     0  02:44       0.197       0.731       2.159
  WS02006234           JUNCTION      0.14     5.74     0  00:11      0.0216       0.548       2.585
  WS02006235           JUNCTION      0.14     5.60     0  00:11      0.0223       0.532       1.526
  WS02006238           JUNCTION      0.15     5.46     0  00:11      0.0235       0.518       2.002
  WS02006239           JUNCTION      0.11     5.34     0  00:10      0.0174       0.509       3.094
  WS02006242           JUNCTION      0.08     5.22     0  01:06      0.0129       0.511       3.739
  WS02006240           JUNCTION      0.06     5.24     0  00:09     0.00992       0.505       3.363
  WS02006243           JUNCTION      0.17     5.37     0  01:10      0.0269       0.513       3.465
  WS02006245           JUNCTION      0.07     5.39     0  01:11      0.0113       0.496       2.730
  WS02006247           JUNCTION      3.66     5.65     0  01:13       0.218       0.537       2.166
  WS02006248           JUNCTION      0.12    42.63     0  02:55      0.0192        2.62       0.406
  WS02006249           JUNCTION      0.19    42.23     0  02:47      0.0286        2.57       0.572
  WS02006251           JUNCTION      1.73    42.06     0  02:47      0.0944        2.56       0.565
  WS02006253           JUNCTION      0.11    40.34     0  02:46      0.0173        2.48       0.293
  WS02618401           JUNCTION      0.00     0.00     0  00:00           0           0       0.000 ltr
  WSA1649              JUNCTION      0.00     0.00     0  00:00           0           0       0.000 ltr
  outfall-5            OUTFALL       0.00    42.63     0  02:55           0        2.29       0.000
  outfall-14           OUTFALL       0.00    22.99     0  02:56           0        1.39       0.000
  outfall-16           OUTFALL       0.00     0.00     0  00:00           0           0       0.000 ltr
  CC-storage           STORAGE      17.71    17.71     0  02:50        1.08        1.08     -49.882
  
  
  **********************
  Node Surcharge Summary
  **********************
  
  Surcharging occurs when water rises above the top of the highest conduit.
  ---------------------------------------------------------------------
                                               Max. Height   Min. Depth
                                   Hours       Above Crown    Below Rim
  Node                 Type      Surcharged         Meters       Meters
  ---------------------------------------------------------------------
  WS01000070           JUNCTION        4.00          0.000        0.000
  WS01000323           JUNCTION        4.00          0.000        0.000
  WS01000533           JUNCTION        4.00          0.000        2.147
  WS01005172           JUNCTION        4.00          0.000        0.000
  WS01005181           JUNCTION        4.00          0.000        0.000
  WS01009841           JUNCTION        4.00          0.000        0.000
  WS02000078           JUNCTION        4.00          0.000        0.000
  WS02000112           JUNCTION        4.00          0.000        0.000
  WS02000136           JUNCTION        4.00          0.000        0.000
  WS02004053           JUNCTION        4.00          0.000        0.000
  WS02005192           JUNCTION        0.52          0.104        2.715
  WS02005193           JUNCTION        0.69          0.150        2.467
  WS02005196           JUNCTION        0.58          0.123        2.583
  WS02006109           JUNCTION        2.97          0.973        0.865
  WS02006110           JUNCTION        2.98          0.987        0.858
  WS02006111           JUNCTION        3.00          0.990        0.887
  WS02006112           JUNCTION        3.20          1.242        0.441
  WS02006113           JUNCTION        2.99          0.991        0.942
  WS02006115           JUNCTION        3.22          1.257        1.042
  WS02006116           JUNCTION        3.28          1.314        1.036
  WS02006183           JUNCTION        4.00          0.000        0.000
  WS02006228           JUNCTION        2.96          0.948        1.283
  WS02006229           JUNCTION        2.93          0.907        1.547
  WS02006231           JUNCTION        2.86          0.800        0.743
  WS02006232           JUNCTION        2.77          0.672        0.817
  WS02006234           JUNCTION        2.69          0.544        0.713
  WS02006235           JUNCTION        2.69          0.534        0.760
  WS02006238           JUNCTION        2.68          0.525        0.909
  WS02006239           JUNCTION        2.67          0.495        0.834
  WS02006242           JUNCTION        2.62          0.405        0.444
  WS02006240           JUNCTION        2.62          0.415        0.988
  WS02006243           JUNCTION        2.55          0.284        0.496
  WS02006245           JUNCTION        2.53          0.215        0.640
  WS02006247           JUNCTION        2.53          0.195        0.565
  WS02006249           JUNCTION        2.14          0.143        0.245
  WS02006251           JUNCTION        0.97          0.156        1.354
  WS02006253           JUNCTION        0.45          0.069        2.385
  WS02618401           JUNCTION        4.00          0.000        0.000
  WSA1649              JUNCTION        4.00          0.000        0.000
  
  
  *********************
  Node Flooding Summary
  *********************
  
  No nodes were flooded.
  
  
  **********************
  Storage Volume Summary
  **********************
  
  --------------------------------------------------------------------------------------------------
                         Average     Avg  Evap Exfil       Maximum     Max    Time of Max    Maximum
                          Volume    Pcnt  Pcnt  Pcnt        Volume    Pcnt     Occurrence    Outflow
  Storage Unit           1000 m3    Full  Loss  Loss       1000 m3    Full    days hr:min        MLD
  --------------------------------------------------------------------------------------------------
  CC-storage               0.000       0     0     0         0.000       0       0  00:00      34.56
  
  
  ***********************
  Outfall Loading Summary
  ***********************
  
  ---------------------------------------------------------------------------------------------------------------------------------
                         Flow       Avg       Max       Total         Total         Total         Total         Total         Total
                         Freq      Flow      Flow      Volume           COD         NH3-N            TN            TP            SS
  Outfall Node           Pcnt       MLD       MLD    10^6 ltr            kg            kg            kg            kg            kg
  ---------------------------------------------------------------------------------------------------------------------------------
  outfall-5             91.95     22.81     42.63       2.293        81.920         0.000         0.000         0.000         0.000
  outfall-14            91.81     13.77     22.99       1.391       182.099         0.000         0.000         0.000         0.000
  outfall-16             0.00      0.00      0.00       0.000         0.000         0.000         0.000         0.000         0.000
  ---------------------------------------------------------------------------------------------------------------------------------
  System                61.25     36.58     65.61       3.684       264.019         0.000         0.000         0.000         0.000
  
  
  ********************
  Link Flow Summary
  ********************
  
  -----------------------------------------------------------------------------
                                 Maximum  Time of Max   Maximum    Max/    Max/
                                  |Flow|   Occurrence   |Veloc|    Full    Full
  Link                 Type          MLD  days hr:min     m/sec    Flow   Depth
  -----------------------------------------------------------------------------
  WSL2038              CONDUIT      5.49     0  02:47      0.24    0.27    1.00
  WSL2039              CONDUIT      5.68     0  02:46      0.43    0.29    1.00
  WSL2041              CONDUIT      5.60     0  02:46      0.27    0.27    1.00
  WSL2294              CONDUIT     17.01     0  03:00      0.65    0.57    1.00
  WSL2295              CONDUIT     17.08     0  03:00      0.72    0.77    1.00
  WSL2296              CONDUIT     22.49     0  02:56      1.08    0.13    1.00
  WSL2297              CONDUIT     22.65     0  02:56      0.57    0.43    1.00
  WSL2298              CONDUIT     22.28     0  02:56      1.20    1.03    1.00
  WSL2301              CONDUIT     22.73     0  02:56      0.38    0.21    1.00
  WSL2302              CONDUIT     22.94     0  02:56      0.34    0.28    1.00
  WSL2441              CONDUIT     16.94     0  03:00      0.72    0.43    1.00
  WSL2442              CONDUIT      8.43     0  02:45      0.89    0.22    1.00
  WSL2443              CONDUIT      8.38     0  02:44      1.02    0.13    1.00
  WSL2444              CONDUIT      8.26     0  02:44      1.18    0.13    1.00
  WSL2446              CONDUIT      5.74     0  00:12      1.14    0.10    1.00
  WSL2447              CONDUIT      5.60     0  00:11      0.91    0.29    1.00
  WSL2448              CONDUIT      5.46     0  00:11      0.76    0.15    1.00
  WSL2449              CONDUIT      5.31     0  00:11      0.71    0.19    1.00
  WSL2450              CONDUIT      5.23     0  00:10      0.84    0.11    1.00
  WSL2451              CONDUIT      5.18     0  00:09      0.76    0.34    1.00
  WSL2452              CONDUIT      5.14     0  01:06      0.86    0.10    1.00
  WSL2454              CONDUIT      5.20     0  01:10      0.95    0.12    1.00
  WSL2478              CONDUIT      5.32     0  01:11      0.86    0.19    1.00
  WSL2479              CONDUIT      5.39     0  01:13      0.83    0.10    1.00
  WSL2480              CONDUIT     42.23     0  02:47      1.27    1.95    1.00
  WSL2482              CONDUIT     42.07     0  02:47      1.27    1.10    1.00
  WSL2484              CONDUIT     40.34     0  02:46      1.35    0.57    1.00
  WSL2493              CONDUIT      8.54     0  02:45      0.78    0.14    1.00
  8                    CONDUIT     42.63     0  02:55      7.18    0.56    0.54
  19                   CONDUIT      0.00     0  00:00      0.00    0.00    0.00
  17                   CONDUIT     22.99     0  02:56      6.19    0.30    0.37
  CC-Pump-1            PUMP        17.28     0  02:44              1.00
  CC-Pump-2            PUMP        17.28     0  02:44              1.00
  
  
  ***************************
  Flow Classification Summary
  ***************************
  
  -------------------------------------------------------------------------------------
                      Adjusted    ---------- Fraction of Time in Flow Class ---------- 
                       /Actual         Up    Down  Sub   Sup   Up    Down  Norm  Inlet 
  Conduit               Length    Dry  Dry   Dry   Crit  Crit  Crit  Crit  Ltd   Ctrl  
  -------------------------------------------------------------------------------------
  WSL2038                 1.00   0.00  0.00  0.00  1.00  0.00  0.00  0.00  0.00  0.00
  WSL2039                 1.00   0.00  0.00  0.00  1.00  0.00  0.00  0.00  0.00  0.00
  WSL2041                 1.00   0.00  0.00  0.00  1.00  0.00  0.00  0.00  0.00  0.00
  WSL2294                 1.00   0.00  0.00  0.00  1.00  0.00  0.00  0.00  0.00  0.00
  WSL2295                 1.00   0.00  0.00  0.00  1.00  0.00  0.00  0.00  0.00  0.00
  WSL2296                 1.00   0.00  0.00  0.00  1.00  0.00  0.00  0.00  0.11  0.00
  WSL2297                 1.00   0.00  0.00  0.00  1.00  0.00  0.00  0.00  0.00  0.00
  WSL2298                 1.00   0.00  0.00  0.00  0.99  0.01  0.00  0.00  0.00  0.00
  WSL2301                 1.00   0.00  0.00  0.00  1.00  0.00  0.00  0.00  0.04  0.00
  WSL2302                 1.00   0.00  0.00  0.00  1.00  0.00  0.00  0.00  0.01  0.00
  WSL2441                 1.00   0.00  0.00  0.00  1.00  0.00  0.00  0.00  0.00  0.00
  WSL2442                 1.00   0.00  0.00  0.00  1.00  0.00  0.00  0.00  0.01  0.00
  WSL2443                 1.00   0.00  0.00  0.00  1.00  0.00  0.00  0.00  0.06  0.00
  WSL2444                 1.00   0.00  0.00  0.00  0.96  0.04  0.00  0.00  0.03  0.00
  WSL2446                 1.00   0.00  0.00  0.00  0.95  0.05  0.00  0.00  0.19  0.00
  WSL2447                 1.00   0.00  0.00  0.00  1.00  0.00  0.00  0.00  0.00  0.00
  WSL2448                 1.00   0.00  0.00  0.00  1.00  0.00  0.00  0.00  0.00  0.00
  WSL2449                 1.00   0.00  0.00  0.00  1.00  0.00  0.00  0.00  0.02  0.00
  WSL2450                 1.00   0.00  0.00  0.00  1.00  0.00  0.00  0.00  0.02  0.00
  WSL2451                 1.00   0.00  0.00  0.00  1.00  0.00  0.00  0.00  0.00  0.00
  WSL2452                 1.00   0.00  0.00  0.00  1.00  0.00  0.00  0.00  0.26  0.00
  WSL2454                 1.00   0.00  0.00  0.00  1.00  0.00  0.00  0.00  0.01  0.00
  WSL2478                 1.00   0.00  0.00  0.00  1.00  0.00  0.00  0.00  0.00  0.00
  WSL2479                 1.00   0.00  0.00  0.00  1.00  0.00  0.00  0.00  0.01  0.00
  WSL2480                 1.00   0.00  0.00  0.00  1.00  0.00  0.00  0.00  0.00  0.00
  WSL2482                 1.00   0.00  0.00  0.00  1.00  0.00  0.00  0.00  0.01  0.00
  WSL2484                 1.00   0.00  0.00  0.00  1.00  0.00  0.00  0.00  0.01  0.00
  WSL2493                 1.00   0.00  0.00  0.00  1.00  0.00  0.00  0.00  0.04  0.00
  8                       1.00   0.08  0.00  0.00  0.00  0.92  0.00  0.00  0.01  0.00
  19                      1.00   1.00  0.00  0.00  0.00  0.00  0.00  0.00  0.00  0.00
  17                      1.00   0.08  0.00  0.00  0.00  0.92  0.00  0.00  0.00  0.00
  
  
  *************************
  Conduit Surcharge Summary
  *************************
  
  ----------------------------------------------------------------------------
                                                           Hours        Hours 
                         --------- Hours Full --------   Above Full   Capacity
  Conduit                Both Ends  Upstream  Dnstream   Normal Flow   Limited
  ----------------------------------------------------------------------------
  WSL2038                     0.52      0.52      0.58      0.01         0.01
  WSL2039                     0.69      0.69      0.79      0.01         0.01
  WSL2041                     0.58      0.58      0.69      0.01         0.01
  WSL2294                     2.97      2.97      2.98      0.01         0.01
  WSL2295                     2.98      2.98      2.99      0.01         0.01
  WSL2296                     3.00      3.00      3.40      0.01         0.01
  WSL2297                     3.20      3.20      3.22      0.01         0.01
  WSL2298                     2.99      2.99      3.00      0.27         0.29
  WSL2301                     3.22      3.22      3.28      0.01         0.01
  WSL2302                     3.28      3.28      3.31      0.01         0.01
  WSL2441                     2.96      2.96      2.97      0.01         0.01
  WSL2442                     2.96      2.96      2.99      0.01         0.01
  WSL2443                     2.86      2.86      2.96      0.01         0.01
  WSL2444                     2.77      2.77      2.86      0.01         0.01
  WSL2446                     2.69      2.69      2.77      0.01         0.01
  WSL2447                     2.69      2.69      2.69      0.01         0.01
  WSL2448                     2.68      2.68      2.69      0.01         0.01
  WSL2449                     2.67      2.67      2.68      0.01         0.01
  WSL2450                     2.62      2.62      2.67      0.01         0.01
  WSL2451                     2.62      2.62      2.62      0.01         0.01
  WSL2452                     2.55      2.55      2.62      0.01         0.01
  WSL2454                     2.53      2.53      2.55      0.01         0.01
  WSL2478                     2.53      2.53      2.53      0.01         0.01
  WSL2479                     2.29      2.29      2.53      0.01         0.01
  WSL2480                     2.14      2.14      2.29      1.00         0.99
  WSL2482                     0.97      0.97      2.14      0.38         0.38
  WSL2484                     0.45      0.45      0.97      0.01         0.01
  WSL2493                     2.93      2.93      2.96      0.01         0.01
  
  
  ***************
  Pumping Summary
  ***************
  
  ---------------------------------------------------------------------------------------------------------
                                                  Min       Avg       Max     Total     Power    % Time Off
                        Percent   Number of      Flow      Flow      Flow    Volume     Usage    Pump Curve
  Pump                 Utilized   Start-Ups       MLD       MLD       MLD  10^6 ltr     Kw-hr    Low   High
  ---------------------------------------------------------------------------------------------------------
  CC-Pump-1              100.00           1      0.00      8.86     17.28     1.079     15.25    0.0    0.0
  CC-Pump-2              100.00           1      0.00      8.86     17.28     1.079     15.25    0.0    0.0
  
  
  ***************************
  Link Pollutant Load Summary
  ***************************
  
  ------------------------------------------------------------------------------------------
                                 COD         NH3-N            TN            TP            SS
  Link                            kg            kg            kg            kg            kg
  ------------------------------------------------------------------------------------------
  WSL2038                     44.069         0.000         0.000         0.000         0.000
  WSL2039                     48.472         0.000         0.000         0.000         0.000
  WSL2041                     46.861         0.000         0.000         0.000         0.000
  WSL2294                    191.837         0.000         0.000         0.000         0.000
  WSL2295                    189.070         0.000         0.000         0.000         0.000
  WSL2296                    192.609         0.000         0.000         0.000         0.000
  WSL2297                    189.499         0.000         0.000         0.000         0.000
  WSL2298                    188.731         0.000         0.000         0.000         0.000
  WSL2301                    187.531         0.000         0.000         0.000         0.000
  WSL2302                    186.578         0.000         0.000         0.000         0.000
  WSL2441                    194.746         0.000         0.000         0.000         0.000
  WSL2442                     42.642         0.000         0.000         0.000         0.000
  WSL2443                     41.546         0.000         0.000         0.000         0.000
  WSL2444                     39.544         0.000         0.000         0.000         0.000
  WSL2446                     38.421         0.000         0.000         0.000         0.000
  WSL2447                     36.891         0.000         0.000         0.000         0.000
  WSL2448                     34.570         0.000         0.000         0.000         0.000
  WSL2449                     31.488         0.000         0.000         0.000         0.000
  WSL2450                     30.428         0.000         0.000         0.000         0.000
  WSL2451                     30.816         0.000         0.000         0.000         0.000
  WSL2452                     31.725         0.000         0.000         0.000         0.000
  WSL2454                     30.542         0.000         0.000         0.000         0.000
  WSL2478                     31.609         0.000         0.000         0.000         0.000
  WSL2479                     15.082         0.000         0.000         0.000         0.000
  WSL2480                     80.826         0.000         0.000         0.000         0.000
  WSL2482                     76.337         0.000         0.000         0.000         0.000
  WSL2484                     51.048         0.000         0.000         0.000         0.000
  WSL2493                     44.720         0.000         0.000         0.000         0.000
  8                           81.920         0.000         0.000         0.000         0.000
  19                           0.000         0.000         0.000         0.000         0.000
  17                         182.099         0.000         0.000         0.000         0.000
  CC-Pump-1                    0.000         0.000         0.000         0.000         0.000
  CC-Pump-2                    0.000         0.000         0.000         0.000         0.000
  

  Analysis begun on:  Sun Dec 29 18:10:44 2019
  Analysis ended on:  Sun Dec 29 18:10:48 2019
  Total elapsed time: 00:00:04