
  EPA STORM WATER MANAGEMENT MODEL - VERSION 5.1 (Build 5.3.0.dev0)
  --------------------------------------------------------------

  
  *********************************************************
  NOTE: The summary statistics displayed in this report are
  based on results found at every computational time step,  
  not just on results from each reporting time step.
  *********************************************************
  
  ****************
  Analysis Options
  ****************
  Flow Units ............... MLD
  Process Models:
    Rainfall/Runoff ........ YES
    RDII ................... NO
    Snowmelt ............... NO
    Groundwater ............ NO
    Flow Routing ........... YES
    Ponding Allowed ........ NO
    Water Quality .......... YES
  Infiltration Method ...... GREEN_AMPT
  Flow Routing Method ...... DYNWAVE
  Surcharge Method ......... EXTRAN
  Starting Date ............ 08/28/2015 08:00:00
  Ending Date .............. 08/28/2015 11:50:00
  Antecedent Dry Days ...... 4.0
  Report Time Step ......... 00:01:00
  Wet Time Step ............ 00:01:00
  Dry Time Step ............ 00:01:00
  Routing Time Step ........ 5.00 sec
  Variable Time Step ....... YES
  Maximum Trials ........... 8
  Number of Threads ........ 1
  Head Tolerance ........... 0.001500 m
  
  
  **************************        Volume         Depth
  Runoff Quantity Continuity     hectare-m            mm
  **************************     ---------       -------
  Total Precipitation ......         1.457        23.556
  Evaporation Loss .........         0.000         0.000
  Infiltration Loss ........         0.558         9.014
  Surface Runoff ...........         0.374         6.046
  Final Storage ............         0.526         8.496
  Continuity Error (%) .....        -0.004
  
  
  **************************           COD         NH3-N            TN            TP            SS
  Runoff Quality Continuity             kg            kg            kg            kg            kg
  **************************    ----------    ----------    ----------    ----------    ----------
  Initial Buildup ..........      2504.640         0.000         0.000         0.000         0.000
  Surface Buildup ..........        19.555         0.000         0.000         0.000         0.000
  Wet Deposition ...........         0.000         0.000         0.000         0.000         0.000
  Sweeping Removal .........         0.000         0.000         0.000         0.000         0.000
  Infiltration Loss ........       143.941         0.000         0.000         0.000         0.000
  BMP Removal ..............         0.000         0.000         0.000         0.000         0.000
  Surface Runoff ...........       730.684         0.000         0.000         0.000         0.000
  Remaining Buildup ........      1647.857         0.000         0.000         0.000         0.000
  Continuity Error (%) .....         0.068         0.000         0.000         0.000         0.000
  
  
  **************************        Volume        Volume
  Flow Routing Continuity        hectare-m      10^6 ltr
  **************************     ---------     ---------
  Dry Weather Inflow .......         0.000         0.000
  Wet Weather Inflow .......         0.373         3.732
  Groundwater Inflow .......         0.000         0.000
  RDII Inflow ..............         0.000         0.000
  External Inflow ..........         0.082         0.822
  External Outflow .........         0.386         3.860
  Flooding Loss ............         0.024         0.238
  Evaporation Loss .........         0.000         0.000
  Exfiltration Loss ........         0.000         0.000
  Initial Stored Volume ....         0.000         0.000
  Final Stored Volume ......         0.057         0.574
  Continuity Error (%) .....        -2.586
  
  
  **************************           COD         NH3-N            TN            TP            SS
  Quality Routing Continuity            kg            kg            kg            kg            kg
  **************************    ----------    ----------    ----------    ----------    ----------
  Dry Weather Inflow .......         0.000         0.000         0.000         0.000         0.000
  Wet Weather Inflow .......       729.522         0.000         0.000         0.000         0.000
  Groundwater Inflow .......         0.000         0.000         0.000         0.000         0.000
  RDII Inflow ..............         0.000         0.000         0.000         0.000         0.000
  External Inflow ..........       137.264         0.000         0.000         0.000         0.000
  External Outflow .........       722.867         0.000         0.000         0.000         0.000
  Flooding Loss ............        45.693         0.000         0.000         0.000         0.000
  Exfiltration Loss ........         0.000         0.000         0.000         0.000         0.000
  Mass Reacted .............         0.000         0.000         0.000         0.000         0.000
  Initial Stored Mass ......         0.000         0.000         0.000         0.000         0.000
  Final Stored Mass ........        77.599         0.000         0.000         0.000         0.000
  Continuity Error (%) .....         2.380         0.000         0.000         0.000         0.000
  
  
  *************************
  Highest Continuity Errors
  *************************
  Node WS02006230 (6.41%)
  Node WS02006242 (3.88%)
  Node WS02006229 (3.87%)
  Node WS02006231 (3.50%)
  Node WS02006240 (3.40%)
  
  
  ***************************
  Time-Step Critical Elements
  ***************************
  Link 8 (84.85%)
  Link 17 (7.23%)
  Link WSL2448 (6.73%)
  
  
  ********************************
  Highest Flow Instability Indexes
  ********************************
  Link WSL2301 (2)
  Link WSL2302 (2)
  Link WSL2297 (2)
  Link WSL2296 (2)
  Link WSL2448 (1)
  
  
  *************************
  Routing Time Step Summary
  *************************
  Minimum Time Step           :     0.50 sec
  Average Time Step           :     0.87 sec
  Maximum Time Step           :     5.00 sec
  Percent in Steady State     :    -0.00
  Average Iterations per Step :     2.16
  Percent Not Converging      :     1.97
  
  
  ***************************
  Subcatchment Runoff Summary
  ***************************
  
  ------------------------------------------------------------------------------------------------------------------------------
                            Total      Total      Total      Total     Imperv       Perv      Total       Total     Peak  Runoff
                           Precip      Runon       Evap      Infil     Runoff     Runoff     Runoff      Runoff   Runoff   Coeff
  Subcatchment                 mm         mm         mm         mm         mm         mm         mm    10^6 ltr      MLD
  ------------------------------------------------------------------------------------------------------------------------------
  1                         23.56      32.09       0.00      10.76      13.28      16.01      29.30        0.35     5.46   0.526
  2                         23.56       0.00       0.00       8.52       5.68       3.09       8.77        0.30     5.25   0.372
  3                         23.56       0.00       0.00       8.59       5.62       2.63       8.25        0.42     7.48   0.350
  35                        23.56       0.00       0.00       8.49       5.69       3.21       8.90        0.27     4.79   0.378
  36                        23.56      17.94       0.00      10.44       9.66       6.37      16.03        0.95    14.18   0.386
  40                        23.56       4.71       0.00       9.08       6.74       4.00      10.74        0.42     7.01   0.380
  41                        23.56       0.00       0.00       8.40       5.74       3.77       9.51        0.18     3.28   0.404
  42                        23.56       0.00       0.00       8.44       5.72       3.56       9.29        0.21     3.76   0.394
  43                        23.56       0.00       0.00       7.93       5.83       6.26      12.10        0.04     0.80   0.514
  44                        23.56     266.02       0.00      16.76      70.97     163.57     234.54        0.87    14.22   0.810
  45                        23.56       0.00       0.00       8.25       5.79       4.66      10.44        0.11     1.92   0.443
  46                        23.56      15.15       0.00       9.90       9.25       8.17      17.42        0.37     5.63   0.450
  47                        23.56       0.00       0.00       8.27       5.78       4.55      10.33        0.11     2.04   0.439
  48                        23.56       7.24       0.00       9.11       7.45       6.33      13.78        0.22     3.53   0.447
  55                        23.56      10.86       0.00       9.21       8.38       9.15      17.52        0.15     2.31   0.509
  56                        23.56      16.60       0.00      10.01       9.59       8.64      18.23        0.39     5.84   0.454
  57                        23.56       0.00       0.00       8.58       5.63       2.65       8.28        0.41     7.36   0.351
  59                        23.56       0.00       0.00       8.19       5.80       4.96      10.76        0.09     1.62   0.457
  60                        23.56      23.51       0.00       9.93      11.48      16.35      27.83        0.14     2.28   0.591
  61                        23.56       0.00       0.00       8.75       5.35       1.55       6.90        1.24    21.84   0.293
  64                        23.56       0.00       0.00       8.29       5.78       4.44      10.21        0.12     2.18   0.434
  
  
  ****************************
  Subcatchment Washoff Summary
  ****************************
  
  ------------------------------------------------------------------------------------------
                                 COD         NH3-N            TN            TP            SS
  Subcatchment                    kg            kg            kg            kg            kg
  ------------------------------------------------------------------------------------------
  1                           67.496         0.000         0.000         0.000         0.000
  2                            0.000         0.000         0.000         0.000         0.000
  3                            0.000         0.000         0.000         0.000         0.000
  35                          57.541         0.000         0.000         0.000         0.000
  36                         324.725         0.000         0.000         0.000         0.000
  40                         109.761         0.000         0.000         0.000         0.000
  41                          40.453         0.000         0.000         0.000         0.000
  42                          45.968         0.000         0.000         0.000         0.000
  43                          10.387         0.000         0.000         0.000         0.000
  44                         300.761         0.000         0.000         0.000         0.000
  45                          24.454         0.000         0.000         0.000         0.000
  46                         122.084         0.000         0.000         0.000         0.000
  47                          25.960         0.000         0.000         0.000         0.000
  48                          62.502         0.000         0.000         0.000         0.000
  55                          43.418         0.000         0.000         0.000         0.000
  56                         125.927         0.000         0.000         0.000         0.000
  57                          85.415         0.000         0.000         0.000         0.000
  59                          20.763         0.000         0.000         0.000         0.000
  60                          41.136         0.000         0.000         0.000         0.000
  61                         233.592         0.000         0.000         0.000         0.000
  64                          27.626         0.000         0.000         0.000         0.000
  ------------------------------------------------------------------------------------------
  System                    1769.971         0.000         0.000         0.000         0.000
  
  
  ******************
  Node Depth Summary
  ******************
  
  ---------------------------------------------------------------------------------
                                 Average  Maximum  Maximum  Time of Max    Reported
                                   Depth    Depth      HGL   Occurrence   Max Depth
  Node                 Type       Meters   Meters   Meters  days hr:min      Meters
  ---------------------------------------------------------------------------------
  WS01000070           JUNCTION     0.00     0.00     0.00     0  00:00        0.00
  WS01000323           JUNCTION     0.00     0.00     0.00     0  00:00        0.00
  WS01000533           JUNCTION     0.00     0.00     6.86     0  00:00        0.00
  WS01005172           JUNCTION     0.00     0.00     0.00     0  00:00        0.00
  WS01005181           JUNCTION     0.00     0.00     0.00     0  00:00        0.00
  WS01009841           JUNCTION     0.00     0.00     0.00     0  00:00        0.00
  WS02000078           JUNCTION     0.00     0.00     0.00     0  00:00        0.00
  WS02000112           JUNCTION     0.00     0.00     0.00     0  00:00        0.00
  WS02000136           JUNCTION     0.00     0.00     0.00     0  00:00        0.00
  WS02004053           JUNCTION     0.00     0.00     0.00     0  00:00        0.00
  WS02004401           JUNCTION     2.20     2.36     8.36     0  02:30        2.36
  WS02005192           JUNCTION     0.50     1.29     9.16     0  01:36        0.77
  WS02005193           JUNCTION     0.54     1.37     9.19     0  01:36        0.81
  WS02005196           JUNCTION     0.52     0.86     8.71     0  03:12        0.79
  WS02006109           JUNCTION     1.62     1.80     8.42     0  02:30        1.80
  WS02006110           JUNCTION     1.63     1.81     8.41     0  02:30        1.81
  WS02006111           JUNCTION     1.64     1.81     8.39     0  01:33        1.81
  WS02006112           JUNCTION     2.09     2.26     8.38     0  02:30        2.26
  WS02006113           JUNCTION     1.64     1.81     8.40     0  02:30        1.81
  WS02006115           JUNCTION     2.10     2.27     8.37     0  02:30        2.27
  WS02006116           JUNCTION     2.16     2.33     8.37     0  02:30        2.33
  WS02006183           JUNCTION     0.00     0.00     0.00     0  00:00        0.00
  WS02006228           JUNCTION     1.59     1.77     8.42     0  02:30        1.77
  WS02006229           JUNCTION     1.55     1.73     8.42     0  02:30        1.73
  WS02006230           JUNCTION     1.49     1.68     8.43     0  02:30        1.67
  WS02006231           JUNCTION     1.35     1.55     8.45     0  01:31        1.53
  WS02006232           JUNCTION     1.23     1.77     8.80     0  01:31        1.40
  WS02006234           JUNCTION     1.11     1.34     8.50     0  01:34        1.27
  WS02006235           JUNCTION     1.10     1.36     8.53     0  01:34        1.26
  WS02006238           JUNCTION     1.09     1.35     8.53     0  01:34        1.25
  WS02006239           JUNCTION     1.06     1.35     8.56     0  01:34        1.22
  WS02006242           JUNCTION     0.98     1.50     8.80     0  01:33        1.13
  WS02006240           JUNCTION     0.99     1.54     8.83     0  01:34        1.14
  WS02006243           JUNCTION     0.87     1.48     8.90     0  01:33        1.01
  WS02006245           JUNCTION     0.80     1.41     8.90     0  01:34        0.94
  WS02006247           JUNCTION     0.78     1.46     8.97     0  01:34        0.92
  WS02006248           JUNCTION     0.71     0.84     8.43     0  03:00        0.84
  WS02006249           JUNCTION     0.71     1.09     8.69     0  01:36        0.87
  WS02006251           JUNCTION     0.67     2.21     9.88     0  01:36        0.91
  WS02006253           JUNCTION     0.56     0.83     8.63     0  02:20        0.83
  WS02618401           JUNCTION     0.00     0.00     0.00     0  00:00        0.00
  WSA1649              JUNCTION     0.00     0.00     0.00     0  00:00        0.00
  outfall-5            OUTFALL      0.15     0.24     7.91     0  03:00        0.24
  outfall-14           OUTFALL      0.11     0.16     7.82     0  02:30        0.16
  outfall-16           OUTFALL      0.00     0.00     8.39     0  00:00        0.00
  CC-storage           STORAGE      2.85     5.63     8.81     0  02:02        5.63
  
  
  *******************
  Node Inflow Summary
  *******************
  
  -------------------------------------------------------------------------------------------------
                                  Maximum  Maximum                  Lateral       Total        Flow
                                  Lateral    Total  Time of Max      Inflow      Inflow     Balance
                                   Inflow   Inflow   Occurrence      Volume      Volume       Error
  Node                 Type           MLD      MLD  days hr:min    10^6 ltr    10^6 ltr     Percent
  -------------------------------------------------------------------------------------------------
  WS01000070           JUNCTION      0.00     0.00     0  00:00           0           0       0.000 ltr
  WS01000323           JUNCTION      0.00     0.00     0  00:00           0           0       0.000 ltr
  WS01000533           JUNCTION      0.00     0.00     0  00:00           0           0       0.000 ltr
  WS01005172           JUNCTION      0.00     0.00     0  00:00           0           0       0.000 ltr
  WS01005181           JUNCTION      0.00     0.00     0  00:00           0           0       0.000 ltr
  WS01009841           JUNCTION      0.00     0.00     0  00:00           0           0       0.000 ltr
  WS02000078           JUNCTION      0.00     0.00     0  00:00           0           0       0.000 ltr
  WS02000112           JUNCTION      0.00     0.00     0  00:00           0           0       0.000 ltr
  WS02000136           JUNCTION      0.00     0.00     0  00:00           0           0       0.000 ltr
  WS02004053           JUNCTION      0.00     0.00     0  00:00           0           0       0.000 ltr
  WS02004401           JUNCTION      0.05    26.81     0  02:30      0.0086        1.55       1.864
  WS02005192           JUNCTION      7.45    11.68     0  01:35        0.43       0.433       0.574
  WS02005193           JUNCTION      0.09    17.79     0  01:35       0.014       0.474       1.472
  WS02005196           JUNCTION      0.12    15.10     0  01:35      0.0183       0.456       1.448
  WS02006109           JUNCTION      0.08    18.91     0  03:06      0.0129        1.17       2.097
  WS02006110           JUNCTION      0.08    18.99     0  03:06      0.0126        1.16       2.142
  WS02006111           JUNCTION      0.24    26.32     0  02:30      0.0352        1.59       1.293
  WS02006112           JUNCTION      0.18    26.47     0  02:30      0.0263         1.6       2.029
  WS02006113           JUNCTION      7.63    26.11     0  02:30       0.446        1.58       1.504
  WS02006115           JUNCTION      0.08    26.55     0  02:30      0.0129        1.58       2.367
  WS02006116           JUNCTION      0.24    26.76     0  02:30      0.0347        1.58       2.127
  WS02006183           JUNCTION      0.00     0.00     0  00:00           0           0       0.000 ltr
  WS02006228           JUNCTION     14.38    18.83     0  03:06       0.892        1.22       1.470
  WS02006229           JUNCTION      0.13    17.57     0  01:30      0.0193       0.393       4.024
  WS02006230           JUNCTION      0.07    19.57     0  01:30      0.0111       0.403       6.846
  WS02006231           JUNCTION      0.13    23.16     0  01:30      0.0197        0.41       3.623
  WS02006232           JUNCTION      5.33    30.90     0  01:31       0.308       0.566       2.776
  WS02006234           JUNCTION      0.14    29.08     0  01:31      0.0208       0.435       3.197
  WS02006235           JUNCTION      0.14    29.40     0  01:31      0.0215        0.44       1.983
  WS02006238           JUNCTION      0.15    31.10     0  01:31      0.0226       0.444       1.925
  WS02006239           JUNCTION      0.11    34.58     0  01:32      0.0167       0.453       3.394
  WS02006242           JUNCTION      0.08    37.18     0  01:32      0.0124       0.481       4.041
  WS02006240           JUNCTION      0.06    35.25     0  01:32     0.00952       0.463       3.525
  WS02006243           JUNCTION      0.17    35.22     0  01:31      0.0259       0.502       3.298
  WS02006245           JUNCTION      0.07    35.19     0  01:31      0.0109       0.507       2.564
  WS02006247           JUNCTION      5.60    35.30     0  01:31       0.377       0.859       1.297
  WS02006248           JUNCTION      0.12    50.37     0  03:00      0.0185        2.56       0.415
  WS02006249           JUNCTION      0.19    44.90     0  02:20      0.0275        1.94       0.749
  WS02006251           JUNCTION      2.37    44.73     0  02:20       0.155        1.93       0.728
  WS02006253           JUNCTION      0.11    42.31     0  02:21      0.0166        1.79       0.393
  WS02618401           JUNCTION      0.00     0.00     0  00:00           0           0       0.000 ltr
  WSA1649              JUNCTION      0.00     0.00     0  00:00           0           0       0.000 ltr
  outfall-5            OUTFALL       0.00    50.39     0  03:00           0        2.34       0.000
  outfall-14           OUTFALL       0.00    26.81     0  02:30           0        1.52       0.000
  outfall-16           OUTFALL       0.00     0.00     0  00:00           0           0       0.000 ltr
  CC-storage           STORAGE      23.46    23.46     0  02:25        1.52        1.52      -8.807
  
  
  **********************
  Node Surcharge Summary
  **********************
  
  Surcharging occurs when water rises above the top of the highest conduit.
  ---------------------------------------------------------------------
                                               Max. Height   Min. Depth
                                   Hours       Above Crown    Below Rim
  Node                 Type      Surcharged         Meters       Meters
  ---------------------------------------------------------------------
  WS01000070           JUNCTION        3.83          0.000        0.000
  WS01000323           JUNCTION        3.83          0.000        0.000
  WS01000533           JUNCTION        3.83          0.000        2.147
  WS01005172           JUNCTION        3.83          0.000        0.000
  WS01005181           JUNCTION        3.83          0.000        0.000
  WS01009841           JUNCTION        3.83          0.000        0.000
  WS02000078           JUNCTION        3.83          0.000        0.000
  WS02000112           JUNCTION        3.83          0.000        0.000
  WS02000136           JUNCTION        3.83          0.000        0.000
  WS02004053           JUNCTION        3.83          0.000        0.000
  WS02005192           JUNCTION        0.58          0.689        2.130
  WS02005193           JUNCTION        0.82          0.772        1.845
  WS02005196           JUNCTION        0.64          0.258        2.448
  WS02006109           JUNCTION        2.33          0.996        0.842
  WS02006110           JUNCTION        2.33          1.008        0.837
  WS02006111           JUNCTION        2.33          1.008        0.869
  WS02006112           JUNCTION        2.45          1.256        0.427
  WS02006113           JUNCTION        2.33          1.011        0.922
  WS02006115           JUNCTION        2.46          1.271        1.028
  WS02006116           JUNCTION        2.54          1.327        1.023
  WS02006183           JUNCTION        3.83          0.000        0.000
  WS02006228           JUNCTION        2.32          0.973        1.258
  WS02006229           JUNCTION        2.32          0.934        1.520
  WS02006231           JUNCTION        2.31          0.855        0.688
  WS02006232           JUNCTION        2.31          1.067        0.422
  WS02006234           JUNCTION        2.30          0.643        0.614
  WS02006235           JUNCTION        2.30          0.664        0.630
  WS02006238           JUNCTION        2.30          0.648        0.786
  WS02006239           JUNCTION        2.30          0.652        0.677
  WS02006242           JUNCTION        2.29          0.799        0.050
  WS02006240           JUNCTION        2.29          0.842        0.561
  WS02006243           JUNCTION        2.27          0.780        0.000
  WS02006245           JUNCTION        2.25          0.709        0.146
  WS02006247           JUNCTION        2.25          0.760        0.000
  WS02006249           JUNCTION        1.46          0.388        0.000
  WS02006251           JUNCTION        1.00          1.510        0.000
  WS02006253           JUNCTION        0.50          0.129        2.325
  WS02618401           JUNCTION        3.83          0.000        0.000
  WSA1649              JUNCTION        3.83          0.000        0.000
  
  
  *********************
  Node Flooding Summary
  *********************
  
  Flooding refers to all water that overflows a node, whether it ponds or not.
  --------------------------------------------------------------------------
                                                             Total   Maximum
                                 Maximum   Time of Max       Flood    Ponded
                        Hours       Rate    Occurrence      Volume     Depth
  Node                 Flooded       MLD   days hr:min    10^6 ltr    Meters
  --------------------------------------------------------------------------
  WS02006243              0.01      5.66      0  01:34       0.000     0.000
  WS02006247              0.01     12.88      0  01:34       0.000     0.000
  WS02006249              0.01      6.46      0  01:36       0.000     0.000
  WS02006251              0.01     15.39      0  01:36       0.000     0.000
  CC-storage              0.42     20.95      0  02:43       0.237     0.000
  
  
  **********************
  Storage Volume Summary
  **********************
  
  --------------------------------------------------------------------------------------------------
                         Average     Avg  Evap Exfil       Maximum     Max    Time of Max    Maximum
                          Volume    Pcnt  Pcnt  Pcnt        Volume    Pcnt     Occurrence    Outflow
  Storage Unit           1000 m3    Full  Loss  Loss       1000 m3    Full    days hr:min        MLD
  --------------------------------------------------------------------------------------------------
  CC-storage               0.081      51     0     0         0.159     100       0  02:02      34.56
  
  
  ***********************
  Outfall Loading Summary
  ***********************
  
  ---------------------------------------------------------------------------------------------------------------------------------
                         Flow       Avg       Max       Total         Total         Total         Total         Total         Total
                         Freq      Flow      Flow      Volume           COD         NH3-N            TN            TP            SS
  Outfall Node           Pcnt       MLD       MLD    10^6 ltr            kg            kg            kg            kg            kg
  ---------------------------------------------------------------------------------------------------------------------------------
  outfall-5             91.36     26.64     50.39       2.340       416.592         0.000         0.000         0.000         0.000
  outfall-14            92.14     16.87     26.81       1.520       306.290         0.000         0.000         0.000         0.000
  outfall-16             0.00      0.00      0.00       0.000         0.000         0.000         0.000         0.000         0.000
  ---------------------------------------------------------------------------------------------------------------------------------
  System                61.17     43.51     76.13       3.860       722.882         0.000         0.000         0.000         0.000
  
  
  ********************
  Link Flow Summary
  ********************
  
  -----------------------------------------------------------------------------
                                 Maximum  Time of Max   Maximum    Max/    Max/
                                  |Flow|   Occurrence   |Veloc|    Full    Full
  Link                 Type          MLD  days hr:min     m/sec    Flow   Depth
  -----------------------------------------------------------------------------
  WSL2038              CONDUIT      9.89     0  01:36      0.57    0.49    1.00
  WSL2039              CONDUIT     17.69     0  01:35      1.00    0.91    1.00
  WSL2041              CONDUIT     14.98     0  01:35      0.90    0.74    1.00
  WSL2294              CONDUIT     18.91     0  03:06      0.44    0.64    1.00
  WSL2295              CONDUIT     18.99     0  03:06      0.50    0.85    1.00
  WSL2296              CONDUIT     26.32     0  02:30      0.63    0.15    1.00
  WSL2297              CONDUIT     26.47     0  02:30      0.39    0.51    1.00
  WSL2298              CONDUIT     26.11     0  02:30      0.87    1.20    1.00
  WSL2301              CONDUIT     26.55     0  02:30      0.39    0.24    1.00
  WSL2302              CONDUIT     26.76     0  02:30      0.39    0.33    1.00
  WSL2441              CONDUIT     18.83     0  03:06      0.44    0.48    1.00
  WSL2442              CONDUIT     17.45     0  01:30      0.63    0.45    1.00
  WSL2443              CONDUIT     19.50     0  01:30      0.73    0.30    1.00
  WSL2444              CONDUIT     23.03     0  01:30      0.99    0.37    1.00
  WSL2446              CONDUIT     27.81     0  01:31      1.39    0.48    1.00
  WSL2447              CONDUIT     28.94     0  01:31      1.46    1.49    1.00
  WSL2448              CONDUIT     29.26     0  01:31      1.34    0.82    1.00
  WSL2449              CONDUIT     30.95     0  01:31      1.29    1.08    1.00
  WSL2450              CONDUIT     34.47     0  01:32      1.33    0.72    1.00
  WSL2451              CONDUIT     35.19     0  01:32      1.32    2.29    1.00
  WSL2452              CONDUIT     37.10     0  01:32      1.34    0.71    1.00
  WSL2454              CONDUIT     35.04     0  01:31      1.47    0.82    1.00
  WSL2478              CONDUIT     35.12     0  01:31      1.42    1.24    1.00
  WSL2479              CONDUIT     34.48     0  01:31      1.41    0.66    1.00
  WSL2480              CONDUIT     44.91     0  02:20      1.42    2.08    1.00
  WSL2482              CONDUIT     44.73     0  02:20      1.36    1.16    1.00
  WSL2484              CONDUIT     42.40     0  02:20      1.51    0.60    1.00
  WSL2493              CONDUIT     15.40     0  01:30      0.51    0.26    1.00
  8                    CONDUIT     50.39     0  03:00      7.47    0.66    0.60
  19                   CONDUIT      0.00     0  00:00      0.00    0.00    0.00
  17                   CONDUIT     26.81     0  02:30      6.45    0.35    0.41
  CC-Pump-1            PUMP        17.28     0  02:20              1.00
  CC-Pump-2            PUMP        17.28     0  02:20              1.00
  
  
  ***************************
  Flow Classification Summary
  ***************************
  
  -------------------------------------------------------------------------------------
                      Adjusted    ---------- Fraction of Time in Flow Class ---------- 
                       /Actual         Up    Down  Sub   Sup   Up    Down  Norm  Inlet 
  Conduit               Length    Dry  Dry   Dry   Crit  Crit  Crit  Crit  Ltd   Ctrl  
  -------------------------------------------------------------------------------------
  WSL2038                 1.00   0.00  0.00  0.00  1.00  0.00  0.00  0.00  0.01  0.00
  WSL2039                 1.00   0.00  0.00  0.00  1.00  0.00  0.00  0.00  0.00  0.00
  WSL2041                 1.00   0.00  0.00  0.00  1.00  0.00  0.00  0.00  0.30  0.00
  WSL2294                 1.00   0.00  0.00  0.00  1.00  0.00  0.00  0.00  0.00  0.00
  WSL2295                 1.00   0.00  0.00  0.00  1.00  0.00  0.00  0.00  0.00  0.00
  WSL2296                 1.00   0.00  0.00  0.00  1.00  0.00  0.00  0.00  0.17  0.00
  WSL2297                 1.00   0.00  0.00  0.00  1.00  0.00  0.00  0.00  0.00  0.00
  WSL2298                 1.00   0.00  0.00  0.00  0.98  0.02  0.00  0.00  0.00  0.00
  WSL2301                 1.00   0.00  0.00  0.00  1.00  0.00  0.00  0.00  0.04  0.00
  WSL2302                 1.00   0.00  0.00  0.00  1.00  0.00  0.00  0.00  0.01  0.00
  WSL2441                 1.00   0.00  0.00  0.00  1.00  0.00  0.00  0.00  0.00  0.00
  WSL2442                 1.00   0.00  0.00  0.00  1.00  0.00  0.00  0.00  0.17  0.00
  WSL2443                 1.00   0.00  0.00  0.00  1.00  0.00  0.00  0.00  0.31  0.00
  WSL2444                 1.00   0.00  0.00  0.00  0.95  0.05  0.00  0.00  0.23  0.00
  WSL2446                 1.00   0.00  0.00  0.00  0.95  0.05  0.00  0.00  0.00  0.00
  WSL2447                 1.00   0.00  0.00  0.00  1.00  0.00  0.00  0.00  0.00  0.00
  WSL2448                 1.00   0.00  0.00  0.00  1.00  0.00  0.00  0.00  0.00  0.00
  WSL2449                 1.00   0.00  0.00  0.00  1.00  0.00  0.00  0.00  0.02  0.00
  WSL2450                 1.00   0.00  0.00  0.00  1.00  0.00  0.00  0.00  0.36  0.00
  WSL2451                 1.00   0.00  0.00  0.00  1.00  0.00  0.00  0.00  0.00  0.00
  WSL2452                 1.00   0.00  0.00  0.00  1.00  0.00  0.00  0.00  0.35  0.00
  WSL2454                 1.00   0.00  0.00  0.00  1.00  0.00  0.00  0.00  0.02  0.00
  WSL2478                 1.00   0.00  0.00  0.00  1.00  0.00  0.00  0.00  0.00  0.00
  WSL2479                 1.00   0.00  0.00  0.00  1.00  0.00  0.00  0.00  0.36  0.00
  WSL2480                 1.00   0.00  0.00  0.00  1.00  0.00  0.00  0.00  0.00  0.00
  WSL2482                 1.00   0.00  0.00  0.00  1.00  0.00  0.00  0.00  0.35  0.00
  WSL2484                 1.00   0.00  0.00  0.00  1.00  0.00  0.00  0.00  0.34  0.00
  WSL2493                 1.00   0.00  0.00  0.00  1.00  0.00  0.00  0.00  0.05  0.00
  8                       1.00   0.09  0.00  0.00  0.00  0.91  0.00  0.00  0.10  0.00
  19                      1.00   1.00  0.00  0.00  0.00  0.00  0.00  0.00  0.00  0.00
  17                      1.00   0.08  0.00  0.00  0.00  0.92  0.00  0.00  0.03  0.00
  
  
  *************************
  Conduit Surcharge Summary
  *************************
  
  ----------------------------------------------------------------------------
                                                           Hours        Hours 
                         --------- Hours Full --------   Above Full   Capacity
  Conduit                Both Ends  Upstream  Dnstream   Normal Flow   Limited
  ----------------------------------------------------------------------------
  WSL2038                     0.57      0.58      0.64      0.01         0.01
  WSL2039                     0.81      0.81      0.93      0.01         0.01
  WSL2041                     0.64      0.64      0.81      0.01         0.01
  WSL2294                     2.33      2.33      2.33      0.01         0.01
  WSL2295                     2.33      2.33      2.33      0.01         0.02
  WSL2296                     2.33      2.33      2.74      0.01         0.01
  WSL2297                     2.45      2.45      2.46      0.01         0.01
  WSL2298                     2.33      2.33      2.33      0.55         0.61
  WSL2301                     2.46      2.46      2.54      0.01         0.01
  WSL2302                     2.54      2.54      2.60      0.01         0.01
  WSL2441                     2.32      2.32      2.33      0.01         0.01
  WSL2442                     2.32      2.32      2.33      0.01         0.01
  WSL2443                     2.31      2.31      2.32      0.01         0.01
  WSL2444                     2.31      2.31      2.31      0.01         0.01
  WSL2446                     2.30      2.30      2.31      0.01         0.01
  WSL2447                     2.30      2.30      2.30      0.04         0.02
  WSL2448                     2.30      2.30      2.30      0.01         0.01
  WSL2449                     2.30      2.30      2.30      0.01         0.01
  WSL2450                     2.29      2.29      2.30      0.01         0.01
  WSL2451                     2.29      2.29      2.29      0.08         0.02
  WSL2452                     2.27      2.27      2.29      0.01         0.01
  WSL2454                     2.25      2.25      2.27      0.01         0.01
  WSL2478                     2.24      2.25      2.25      0.06         0.01
  WSL2479                     1.89      1.89      2.25      0.01         0.01
  WSL2480                     1.46      1.46      1.89      1.00         0.94
  WSL2482                     1.00      1.00      1.46      0.42         0.43
  WSL2484                     0.50      0.50      1.00      0.01         0.01
  WSL2493                     2.32      2.32      2.32      0.01         0.01
  
  
  ***************
  Pumping Summary
  ***************
  
  ---------------------------------------------------------------------------------------------------------
                                                  Min       Avg       Max     Total     Power    % Time Off
                        Percent   Number of      Flow      Flow      Flow    Volume     Usage    Pump Curve
  Pump                 Utilized   Start-Ups       MLD       MLD       MLD  10^6 ltr     Kw-hr    Low   High
  ---------------------------------------------------------------------------------------------------------
  CC-Pump-1               39.13           3      0.00     11.01     17.28     0.658      4.99    0.0    0.0
  CC-Pump-2               39.13           3      0.00     11.01     17.28     0.658      4.99    0.0    0.0
  
  
  ***************************
  Link Pollutant Load Summary
  ***************************
  
  ------------------------------------------------------------------------------------------
                                 COD         NH3-N            TN            TP            SS
  Link                            kg            kg            kg            kg            kg
  ------------------------------------------------------------------------------------------
  WSL2038                     88.599         0.000         0.000         0.000         0.000
  WSL2039                     93.595         0.000         0.000         0.000         0.000
  WSL2041                     91.307         0.000         0.000         0.000         0.000
  WSL2294                    320.989         0.000         0.000         0.000         0.000
  WSL2295                    316.695         0.000         0.000         0.000         0.000
  WSL2296                    318.542         0.000         0.000         0.000         0.000
  WSL2297                    315.861         0.000         0.000         0.000         0.000
  WSL2298                    315.819         0.000         0.000         0.000         0.000
  WSL2301                    312.644         0.000         0.000         0.000         0.000
  WSL2302                    311.555         0.000         0.000         0.000         0.000
  WSL2441                    325.187         0.000         0.000         0.000         0.000
  WSL2442                     39.468         0.000         0.000         0.000         0.000
  WSL2443                     34.646         0.000         0.000         0.000         0.000
  WSL2444                     30.280         0.000         0.000         0.000         0.000
  WSL2446                     31.837         0.000         0.000         0.000         0.000
  WSL2447                     35.856         0.000         0.000         0.000         0.000
  WSL2448                     37.579         0.000         0.000         0.000         0.000
  WSL2449                     40.254         0.000         0.000         0.000         0.000
  WSL2450                     44.014         0.000         0.000         0.000         0.000
  WSL2451                     48.323         0.000         0.000         0.000         0.000
  WSL2452                     53.182         0.000         0.000         0.000         0.000
  WSL2454                     57.318         0.000         0.000         0.000         0.000
  WSL2478                     61.413         0.000         0.000         0.000         0.000
  WSL2479                    125.139         0.000         0.000         0.000         0.000
  WSL2480                    350.099         0.000         0.000         0.000         0.000
  WSL2482                    346.405         0.000         0.000         0.000         0.000
  WSL2484                    302.328         0.000         0.000         0.000         0.000
  WSL2493                     50.075         0.000         0.000         0.000         0.000
  8                          416.592         0.000         0.000         0.000         0.000
  19                           0.000         0.000         0.000         0.000         0.000
  17                         306.290         0.000         0.000         0.000         0.000
  CC-Pump-1                  103.253         0.000         0.000         0.000         0.000
  CC-Pump-2                  103.253         0.000         0.000         0.000         0.000
  

  Analysis begun on:  Sun Dec 29 18:09:46 2019
  Analysis ended on:  Sun Dec 29 18:09:49 2019
  Total elapsed time: 00:00:03