
  EPA STORM WATER MANAGEMENT MODEL - VERSION 5.1 (Build 5.1.013)
  --------------------------------------------------------------

  
  *********************************************************
  NOTE: The summary statistics displayed in this report are
  based on results found at every computational time step,  
  not just on results from each reporting time step.
  *********************************************************
  
  ****************
  Analysis Options
  ****************
  Flow Units ............... MLD
  Process Models:
    Rainfall/Runoff ........ YES
    RDII ................... NO
    Snowmelt ............... NO
    Groundwater ............ NO
    Flow Routing ........... YES
    Ponding Allowed ........ NO
    Water Quality .......... YES
  Infiltration Method ...... GREEN_AMPT
  Flow Routing Method ...... DYNWAVE
  Surcharge Method ......... EXTRAN
  Starting Date ............ 08/28/2015 08:00:00
  Ending Date .............. 08/28/2015 12:00:00
  Antecedent Dry Days ...... 4.0
  Report Time Step ......... 00:01:00
  Wet Time Step ............ 00:01:00
  Dry Time Step ............ 00:01:00
  Routing Time Step ........ 5.00 sec
  Variable Time Step ....... YES
  Maximum Trials ........... 8
  Number of Threads ........ 1
  Head Tolerance ........... 0.001500 m
  
  
  **************************        Volume         Depth
  Runoff Quantity Continuity     hectare-m            mm
  **************************     ---------       -------
  Total Precipitation ......         0.800        44.419
  Evaporation Loss .........         0.000         0.000
  Infiltration Loss ........         0.234        13.004
  Surface Runoff ...........         0.310        17.208
  Final Storage ............         0.256        14.228
  Continuity Error (%) .....        -0.048
  
  
  **************************           COD         NH3-N            TN            TP            SS
  Runoff Quality Continuity             kg            kg            kg            kg            kg
  **************************    ----------    ----------    ----------    ----------    ----------
  Initial Buildup ..........       864.000         0.000         0.000         0.000         0.000
  Surface Buildup ..........         6.516         0.000         0.000         0.000         0.000
  Wet Deposition ...........         0.000         0.000         0.000         0.000         0.000
  Sweeping Removal .........         0.000         0.000         0.000         0.000         0.000
  Infiltration Loss ........         0.000         0.000         0.000         0.000         0.000
  BMP Removal ..............         0.000         0.000         0.000         0.000         0.000
  Surface Runoff ...........       636.381         0.000         0.000         0.000         0.000
  Remaining Buildup ........       234.135         0.000         0.000         0.000         0.000
  Continuity Error (%) .....         0.000         0.000         0.000         0.000         0.000
  
  
  **************************        Volume        Volume
  Flow Routing Continuity        hectare-m      10^6 ltr
  **************************     ---------     ---------
  Dry Weather Inflow .......         0.000         0.000
  Wet Weather Inflow .......         0.309         3.094
  Groundwater Inflow .......         0.000         0.000
  RDII Inflow ..............         0.000         0.000
  External Inflow ..........         0.036         0.362
  External Outflow .........         0.335         3.349
  Flooding Loss ............         0.000         0.000
  Evaporation Loss .........         0.000         0.000
  Exfiltration Loss ........         0.000         0.000
  Initial Stored Volume ....         0.000         0.000
  Final Stored Volume ......         0.011         0.106
  Continuity Error (%) .....        -0.001
  
  
  **************************           COD         NH3-N            TN            TP            SS
  Quality Routing Continuity            kg            kg            kg            kg            kg
  **************************    ----------    ----------    ----------    ----------    ----------
  Dry Weather Inflow .......         0.000         0.000         0.000         0.000         0.000
  Wet Weather Inflow .......       636.199         0.000         0.000         0.000         0.000
  Groundwater Inflow .......         0.000         0.000         0.000         0.000         0.000
  RDII Inflow ..............         0.000         0.000         0.000         0.000         0.000
  External Inflow ..........        60.440         0.000         0.000         0.000         0.000
  External Outflow .........       690.628         0.000         0.000         0.000         0.000
  Flooding Loss ............         0.015         0.000         0.000         0.000         0.000
  Exfiltration Loss ........         0.000         0.000         0.000         0.000         0.000
  Mass Reacted .............         0.000         0.000         0.000         0.000         0.000
  Initial Stored Mass ......         0.000         0.000         0.000         0.000         0.000
  Final Stored Mass ........         6.114         0.000         0.000         0.000         0.000
  Continuity Error (%) .....        -0.017         0.000         0.000         0.000         0.000
  
  
  ***************************
  Time-Step Critical Elements
  ***************************
  Link 8 (96.06%)
  
  
  ********************************
  Highest Flow Instability Indexes
  ********************************
  All links are stable.
  
  
  *************************
  Routing Time Step Summary
  *************************
  Minimum Time Step           :     0.01 sec
  Average Time Step           :     0.74 sec
  Maximum Time Step           :     5.00 sec
  Percent in Steady State     :     0.00
  Average Iterations per Step :     2.01
  Percent Not Converging      :     0.10
  
  
  ***************************
  Subcatchment Runoff Summary
  ***************************
  
  ------------------------------------------------------------------------------------------------------------------------------
                            Total      Total      Total      Total     Imperv       Perv      Total       Total     Peak  Runoff
                           Precip      Runon       Evap      Infil     Runoff     Runoff     Runoff      Runoff   Runoff   Coeff
  Subcatchment                 mm         mm         mm         mm         mm         mm         mm    10^6 ltr      MLD
  ------------------------------------------------------------------------------------------------------------------------------
  61                        44.42       0.00       0.00      13.00      10.62       6.59      17.21        3.10    34.38   0.387
  
  
  ****************************
  Subcatchment Washoff Summary
  ****************************
  
  ------------------------------------------------------------------------------------------
                                 COD         NH3-N            TN            TP            SS
  Subcatchment                    kg            kg            kg            kg            kg
  ------------------------------------------------------------------------------------------
  61                         636.381         0.000         0.000         0.000         0.000
  ------------------------------------------------------------------------------------------
  System                     636.381         0.000         0.000         0.000         0.000
  
  
  ******************
  Node Depth Summary
  ******************
  
  ---------------------------------------------------------------------------------
                                 Average  Maximum  Maximum  Time of Max    Reported
                                   Depth    Depth      HGL   Occurrence   Max Depth
  Node                 Type       Meters   Meters   Meters  days hr:min      Meters
  ---------------------------------------------------------------------------------
  WS02006248           JUNCTION     0.71     0.75     8.34     0  01:05        0.74
  WS02006249           JUNCTION     0.71     1.09     8.69     0  01:04        0.99
  WS02006251           JUNCTION     0.65     1.53     9.20     0  01:04        0.71
  WS02006253           JUNCTION     0.52     0.66     8.46     0  01:04        0.62
  outfall-5            OUTFALL      0.13     0.15     7.81     0  01:05        0.14
  outfall-27           OUTFALL      0.10     0.18     8.08     0  01:28        0.18
  CC-storage           STORAGE      4.79     5.31     8.49     0  01:28        5.31
  
  
  *******************
  Node Inflow Summary
  *******************
  
  -------------------------------------------------------------------------------------------------
                                  Maximum  Maximum                  Lateral       Total        Flow
                                  Lateral    Total  Time of Max      Inflow      Inflow     Balance
                                   Inflow   Inflow   Occurrence      Volume      Volume       Error
  Node                 Type           MLD      MLD  days hr:min    10^6 ltr    10^6 ltr     Percent
  -------------------------------------------------------------------------------------------------
  WS02006248           JUNCTION      0.12    21.61     0  01:05      0.0192        2.17       0.214
  WS02006249           JUNCTION      0.19    21.18     0  01:05      0.0286        2.17       0.662
  WS02006251           JUNCTION      0.06    23.05     0  01:03     0.00981        2.15       0.702
  WS02006253           JUNCTION      0.11    17.39     0  01:03      0.0173        2.14       0.212
  outfall-5            OUTFALL       0.00    22.01     0  01:05           0        2.16       0.000
  outfall-27           OUTFALL       0.00    19.03     0  01:28           0        1.19       0.000
  CC-storage           STORAGE      36.31    36.31     0  01:28        3.38        3.38       0.000
  
  
  **********************
  Node Surcharge Summary
  **********************
  
  Surcharging occurs when water rises above the top of the highest conduit.
  ---------------------------------------------------------------------
                                               Max. Height   Min. Depth
                                   Hours       Above Crown    Below Rim
  Node                 Type      Surcharged         Meters       Meters
  ---------------------------------------------------------------------
  WS02006249           JUNCTION        2.92          0.388        0.000
  WS02006251           JUNCTION        0.01          0.835        0.675
  
  
  *********************
  Node Flooding Summary
  *********************
  
  Flooding refers to all water that overflows a node, whether it ponds or not.
  --------------------------------------------------------------------------
                                                             Total   Maximum
                                 Maximum   Time of Max       Flood    Ponded
                        Hours       Rate    Occurrence      Volume     Depth
  Node                 Flooded       MLD   days hr:min    10^6 ltr    Meters
  --------------------------------------------------------------------------
  WS02006249              0.01      7.07      0  01:04       0.000     0.000
  
  
  **********************
  Storage Volume Summary
  **********************
  
  --------------------------------------------------------------------------------------------------
                         Average     Avg  Evap Exfil       Maximum     Max    Time of Max    Maximum
                          Volume    Pcnt  Pcnt  Pcnt        Volume    Pcnt     Occurrence    Outflow
  Storage Unit           1000 m3    Full  Loss  Loss       1000 m3    Full    days hr:min        MLD
  --------------------------------------------------------------------------------------------------
  CC-storage               0.135      85     0     0         0.150      94       0  01:28      36.31
  
  
  ***********************
  Outfall Loading Summary
  ***********************
  
  ---------------------------------------------------------------------------------------------------------------------------------
                         Flow       Avg       Max       Total         Total         Total         Total         Total         Total
                         Freq      Flow      Flow      Volume           COD         NH3-N            TN            TP            SS
  Outfall Node           Pcnt       MLD       MLD    10^6 ltr            kg            kg            kg            kg            kg
  ---------------------------------------------------------------------------------------------------------------------------------
  outfall-5             96.07     17.69     22.01       2.161       404.899         0.000         0.000         0.000         0.000
  outfall-27            71.81     13.03     19.03       1.189       285.738         0.000         0.000         0.000         0.000
  ---------------------------------------------------------------------------------------------------------------------------------
  System                83.94     30.72     19.03       3.349       690.637         0.000         0.000         0.000         0.000
  
  
  ********************
  Link Flow Summary
  ********************
  
  -----------------------------------------------------------------------------
                                 Maximum  Time of Max   Maximum    Max/    Max/
                                  |Flow|   Occurrence   |Veloc|    Full    Full
  Link                 Type          MLD  days hr:min     m/sec    Flow   Depth
  -----------------------------------------------------------------------------
  WSL2480              CONDUIT     21.48     0  01:05      0.65    0.99    1.00
  WSL2482              CONDUIT     20.99     0  01:05      0.74    0.55    1.00
  WSL2484              CONDUIT     22.99     0  01:03      1.10    0.32    0.96
  8                    CONDUIT     22.01     0  01:05      6.05    0.29    0.37
  1                    CONDUIT     19.03     0  01:28      4.12    0.40    0.44
  CC-Pump-1            PUMP        17.28     0  01:03              1.00
  
  
  ***************************
  Flow Classification Summary
  ***************************
  
  -------------------------------------------------------------------------------------
                      Adjusted    ---------- Fraction of Time in Flow Class ---------- 
                       /Actual         Up    Down  Sub   Sup   Up    Down  Norm  Inlet 
  Conduit               Length    Dry  Dry   Dry   Crit  Crit  Crit  Crit  Ltd   Ctrl  
  -------------------------------------------------------------------------------------
  WSL2480                 1.00   0.00  0.00  0.00  1.00  0.00  0.00  0.00  0.00  0.00
  WSL2482                 1.00   0.00  0.00  0.00  1.00  0.00  0.00  0.00  0.03  0.00
  WSL2484                 1.00   0.00  0.00  0.00  1.00  0.00  0.00  0.00  0.09  0.00
  8                       1.00   0.04  0.00  0.00  0.00  0.96  0.00  0.00  0.01  0.00
  1                       1.00   0.28  0.00  0.00  0.00  0.72  0.00  0.00  0.24  0.00
  
  
  *************************
  Conduit Surcharge Summary
  *************************
  
  ----------------------------------------------------------------------------
                                                           Hours        Hours 
                         --------- Hours Full --------   Above Full   Capacity
  Conduit                Both Ends  Upstream  Dnstream   Normal Flow   Limited
  ----------------------------------------------------------------------------
  WSL2480                     2.92      2.92      2.92      0.01         0.01
  WSL2482                     0.01      0.01      2.92      0.01         0.01
  WSL2484                     0.01      0.01      0.01      0.01         0.01
  
  
  ***************
  Pumping Summary
  ***************
  
  ---------------------------------------------------------------------------------------------------------
                                                  Min       Avg       Max     Total     Power    % Time Off
                        Percent   Number of      Flow      Flow      Flow    Volume     Usage    Pump Curve
  Pump                 Utilized   Start-Ups       MLD       MLD       MLD  10^6 ltr     Kw-hr    Low   High
  ---------------------------------------------------------------------------------------------------------
  CC-Pump-1               73.78           1      0.00     17.28     17.28     2.125      2.39    0.0    0.0
  
  
  ***************************
  Link Pollutant Load Summary
  ***************************
  
  ------------------------------------------------------------------------------------------
                                 COD         NH3-N            TN            TP            SS
  Link                            kg            kg            kg            kg            kg
  ------------------------------------------------------------------------------------------
  WSL2480                    403.457         0.000         0.000         0.000         0.000
  WSL2482                    400.319         0.000         0.000         0.000         0.000
  WSL2484                    398.161         0.000         0.000         0.000         0.000
  8                          404.899         0.000         0.000         0.000         0.000
  1                          285.738         0.000         0.000         0.000         0.000
  CC-Pump-1                  394.722         0.000         0.000         0.000         0.000
  

  Analysis begun on:  Thu Feb 14 15:09:34 2019
  Analysis ended on:  Thu Feb 14 15:09:34 2019
  Total elapsed time: < 1 sec