
  EPA STORM WATER MANAGEMENT MODEL - VERSION 5.1 (Build 5.2.0.dev5)
  --------------------------------------------------------------

  
  *********************************************************
  NOTE: The summary statistics displayed in this report are
  based on results found at every computational time step,  
  not just on results from each reporting time step.
  *********************************************************
  
  ****************
  Analysis Options
  ****************
  Flow Units ............... MLD
  Process Models:
    Rainfall/Runoff ........ YES
    RDII ................... NO
    Snowmelt ............... NO
    Groundwater ............ NO
    Flow Routing ........... YES
    Ponding Allowed ........ NO
    Water Quality .......... YES
  Infiltration Method ...... GREEN_AMPT
  Flow Routing Method ...... DYNWAVE
  Surcharge Method ......... EXTRAN
  Starting Date ............ 08/28/2015 08:00:00
  Ending Date .............. 08/28/2015 11:50:00
  Antecedent Dry Days ...... 4.0
  Report Time Step ......... 00:01:00
  Wet Time Step ............ 00:01:00
  Dry Time Step ............ 00:01:00
  Routing Time Step ........ 5.00 sec
  Variable Time Step ....... YES
  Maximum Trials ........... 8
  Number of Threads ........ 1
  Head Tolerance ........... 0.001500 m
  
  
  **************************        Volume         Depth
  Runoff Quantity Continuity     hectare-m            mm
  **************************     ---------       -------
  Total Precipitation ......         0.844        13.637
  Evaporation Loss .........         0.000         0.000
  Infiltration Loss ........         0.435         7.034
  Surface Runoff ...........         0.167         2.692
  Final Storage ............         0.242         3.911
  Continuity Error (%) .....        -0.007
  
  
  **************************           COD         NH3-N            TN            TP            SS
  Runoff Quality Continuity             kg            kg            kg            kg            kg
  **************************    ----------    ----------    ----------    ----------    ----------
  Initial Buildup ..........      2504.640         0.000         0.000         0.000         0.000
  Surface Buildup ..........        20.192         0.000         0.000         0.000         0.000
  Wet Deposition ...........         0.000         0.000         0.000         0.000         0.000
  Sweeping Removal .........         0.000         0.000         0.000         0.000         0.000
  Infiltration Loss ........        63.201         0.000         0.000         0.000         0.000
  BMP Removal ..............         0.000         0.000         0.000         0.000         0.000
  Surface Runoff ...........       211.409         0.000         0.000         0.000         0.000
  Remaining Buildup ........      2249.510         0.000         0.000         0.000         0.000
  Continuity Error (%) .....         0.028         0.000         0.000         0.000         0.000
  
  
  **************************        Volume        Volume
  Flow Routing Continuity        hectare-m      10^6 ltr
  **************************     ---------     ---------
  Dry Weather Inflow .......         0.000         0.000
  Wet Weather Inflow .......         0.166         1.662
  Groundwater Inflow .......         0.000         0.000
  RDII Inflow ..............         0.000         0.000
  External Inflow ..........         0.082         0.822
  External Outflow .........         0.110         1.103
  Flooding Loss ............         0.072         0.721
  Evaporation Loss .........         0.000         0.000
  Exfiltration Loss ........         0.000         0.000
  Initial Stored Volume ....         0.000         0.000
  Final Stored Volume ......         0.062         0.619
  Continuity Error (%) .....         1.669
  
  
  **************************           COD         NH3-N            TN            TP            SS
  Quality Routing Continuity            kg            kg            kg            kg            kg
  **************************    ----------    ----------    ----------    ----------    ----------
  Dry Weather Inflow .......         0.000         0.000         0.000         0.000         0.000
  Wet Weather Inflow .......       210.995         0.000         0.000         0.000         0.000
  Groundwater Inflow .......         0.000         0.000         0.000         0.000         0.000
  RDII Inflow ..............         0.000         0.000         0.000         0.000         0.000
  External Inflow ..........       137.264         0.000         0.000         0.000         0.000
  External Outflow .........       147.230         0.000         0.000         0.000         0.000
  Flooding Loss ............        95.275         0.000         0.000         0.000         0.000
  Exfiltration Loss ........         0.000         0.000         0.000         0.000         0.000
  Mass Reacted .............         0.000         0.000         0.000         0.000         0.000
  Initial Stored Mass ......         0.000         0.000         0.000         0.000         0.000
  Final Stored Mass ........        98.078         0.000         0.000         0.000         0.000
  Continuity Error (%) .....         2.204         0.000         0.000         0.000         0.000
  
  
  *************************
  Highest Continuity Errors
  *************************
  Node WS02006230 (9.26%)
  Node WS02006115 (6.83%)
  Node WS02006116 (6.32%)
  Node WS02006229 (6.17%)
  Node WS02006110 (5.78%)
  
  
  ***************************
  Time-Step Critical Elements
  ***************************
  Link 8 (82.67%)
  Link WSL2448 (14.51%)
  
  
  ********************************
  Highest Flow Instability Indexes
  ********************************
  Link WSL2302 (4)
  Link WSL2301 (3)
  Link WSL2297 (3)
  Link WSL2296 (3)
  Link WSL2298 (2)
  
  
  *************************
  Routing Time Step Summary
  *************************
  Minimum Time Step           :     0.50 sec
  Average Time Step           :     1.31 sec
  Maximum Time Step           :     5.00 sec
  Percent in Steady State     :    -0.00
  Average Iterations per Step :     2.05
  Percent Not Converging      :     0.26
  
  
  ***************************
  Subcatchment Runoff Summary
  ***************************
  
  ------------------------------------------------------------------------------------------------------------------------------
                            Total      Total      Total      Total     Imperv       Perv      Total       Total     Peak  Runoff
                           Precip      Runon       Evap      Infil     Runoff     Runoff     Runoff      Runoff   Runoff   Coeff
  Subcatchment                 mm         mm         mm         mm         mm         mm         mm    10^6 ltr      MLD
  ------------------------------------------------------------------------------------------------------------------------------
  1                         13.64      13.14       0.00       8.19       6.34       4.70      11.04        0.13     2.00   0.412
  2                         13.64       0.00       0.00       6.72       3.22       0.85       4.07        0.14     2.56   0.299
  3                         13.64       0.00       0.00       6.75       3.18       0.71       3.89        0.20     3.67   0.285
  35                        13.64       0.00       0.00       6.72       3.24       0.89       4.12        0.12     2.33   0.302
  36                        13.64       7.88       0.00       7.90       4.92       1.77       6.69        0.39     6.39   0.311
  40                        13.64       2.15       0.00       7.08       3.70       1.12       4.81        0.19     3.34   0.305
  41                        13.64       0.00       0.00       6.68       3.27       1.07       4.34        0.08     1.58   0.318
  42                        13.64       0.00       0.00       6.70       3.26       1.00       4.26        0.10     1.82   0.312
  43                        13.64       0.00       0.00       6.49       3.36       1.98       5.34        0.02     0.36   0.391
  44                        13.64     111.42       0.00      12.80      30.49      60.49      90.98        0.34     5.68   0.728
  45                        13.64       0.00       0.00       6.62       3.32       1.37       4.68        0.05     0.91   0.343
  46                        13.64       6.60       0.00       7.63       4.79       2.37       7.16        0.15     2.50   0.354
  47                        13.64       0.00       0.00       6.63       3.31       1.33       4.64        0.05     0.97   0.340
  48                        13.64       3.26       0.00       7.16       4.05       1.86       5.91        0.09     1.62   0.350
  55                        13.64       4.85       0.00       7.28       4.48       2.83       7.30        0.06     1.02   0.395
  56                        13.64       7.28       0.00       7.70       4.94       2.51       7.45        0.16     2.57   0.356
  57                        13.64       0.00       0.00       6.75       3.18       0.72       3.90        0.19     3.61   0.286
  59                        13.64       0.00       0.00       6.60       3.33       1.48       4.80        0.04     0.76   0.352
  60                        13.64      10.59       0.00       7.84       5.89       5.45      11.34        0.06     0.94   0.468
  61                        13.64       0.00       0.00       6.81       2.95       0.40       3.36        0.60    10.71   0.246
  64                        13.64       0.00       0.00       6.64       3.31       1.29       4.60        0.06     1.04   0.337
  
  
  ****************************
  Subcatchment Washoff Summary
  ****************************
  
  ------------------------------------------------------------------------------------------
                                 COD         NH3-N            TN            TP            SS
  Subcatchment                    kg            kg            kg            kg            kg
  ------------------------------------------------------------------------------------------
  1                           16.040         0.000         0.000         0.000         0.000
  2                            0.000         0.000         0.000         0.000         0.000
  3                            0.000         0.000         0.000         0.000         0.000
  35                          16.139         0.000         0.000         0.000         0.000
  36                          95.829         0.000         0.000         0.000         0.000
  40                          30.486         0.000         0.000         0.000         0.000
  41                          11.309         0.000         0.000         0.000         0.000
  42                          12.861         0.000         0.000         0.000         0.000
  43                           3.031         0.000         0.000         0.000         0.000
  44                          91.550         0.000         0.000         0.000         0.000
  45                           6.855         0.000         0.000         0.000         0.000
  46                          37.138         0.000         0.000         0.000         0.000
  47                           7.270         0.000         0.000         0.000         0.000
  48                          18.003         0.000         0.000         0.000         0.000
  55                          13.847         0.000         0.000         0.000         0.000
  56                          40.923         0.000         0.000         0.000         0.000
  57                          24.086         0.000         0.000         0.000         0.000
  59                           5.843         0.000         0.000         0.000         0.000
  60                          17.440         0.000         0.000         0.000         0.000
  61                          65.887         0.000         0.000         0.000         0.000
  64                           7.731         0.000         0.000         0.000         0.000
  ------------------------------------------------------------------------------------------
  System                     522.267         0.000         0.000         0.000         0.000
  
  
  ******************
  Node Depth Summary
  ******************
  
  ---------------------------------------------------------------------------------
                                 Average  Maximum  Maximum  Time of Max    Reported
                                   Depth    Depth      HGL   Occurrence   Max Depth
  Node                 Type       Meters   Meters   Meters  days hr:min      Meters
  ---------------------------------------------------------------------------------
  WS01000070           JUNCTION     0.00     0.00     0.00     0  00:00        0.00
  WS01000323           JUNCTION     0.00     0.00     0.00     0  00:00        0.00
  WS01000533           JUNCTION     0.00     0.00     6.86     0  00:00        0.00
  WS01005172           JUNCTION     0.00     0.00     0.00     0  00:00        0.00
  WS01005181           JUNCTION     0.00     0.00     0.00     0  00:00        0.00
  WS01009841           JUNCTION     0.00     0.00     0.00     0  00:00        0.00
  WS02000078           JUNCTION     0.00     0.00     0.00     0  00:00        0.00
  WS02000112           JUNCTION     0.00     0.00     0.00     0  00:00        0.00
  WS02000136           JUNCTION     0.00     0.00     0.00     0  00:00        0.00
  WS02004053           JUNCTION     0.00     0.00     0.00     0  00:00        0.00
  WS02004401           JUNCTION     2.07     2.29     8.29     0  02:30        2.29
  WS02005192           JUNCTION     0.35     0.46     8.33     0  02:11        0.46
  WS02005193           JUNCTION     0.40     0.51     8.33     0  02:11        0.50
  WS02005196           JUNCTION     0.37     0.48     8.33     0  02:11        0.48
  WS02006109           JUNCTION     1.47     1.68     8.30     0  02:12        1.68
  WS02006110           JUNCTION     1.49     1.70     8.30     0  02:27        1.70
  WS02006111           JUNCTION     1.50     1.72     8.30     0  02:29        1.72
  WS02006112           JUNCTION     1.95     2.18     8.30     0  02:29        2.17
  WS02006113           JUNCTION     1.50     1.71     8.30     0  02:27        1.71
  WS02006115           JUNCTION     1.97     2.19     8.29     0  02:29        2.19
  WS02006116           JUNCTION     2.03     2.25     8.29     0  02:29        2.25
  WS02006183           JUNCTION     0.00     0.00     0.00     0  00:00        0.00
  WS02006228           JUNCTION     1.44     1.65     8.30     0  02:12        1.65
  WS02006229           JUNCTION     1.40     1.62     8.31     0  02:12        1.61
  WS02006230           JUNCTION     1.35     1.56     8.31     0  02:12        1.55
  WS02006231           JUNCTION     1.21     1.41     8.31     0  02:12        1.40
  WS02006232           JUNCTION     1.09     1.28     8.31     0  02:12        1.27
  WS02006234           JUNCTION     0.97     1.15     8.31     0  02:12        1.14
  WS02006235           JUNCTION     0.97     1.14     8.31     0  02:12        1.13
  WS02006238           JUNCTION     0.96     1.13     8.31     0  02:12        1.12
  WS02006239           JUNCTION     0.93     1.10     8.31     0  02:12        1.09
  WS02006242           JUNCTION     0.85     1.01     8.31     0  02:12        1.00
  WS02006240           JUNCTION     0.86     1.02     8.31     0  02:12        1.01
  WS02006243           JUNCTION     0.74     0.88     8.30     0  02:12        0.88
  WS02006245           JUNCTION     0.68     0.81     8.30     0  02:12        0.81
  WS02006247           JUNCTION     0.66     0.79     8.30     0  02:12        0.79
  WS02006248           JUNCTION     0.59     0.71     8.30     0  02:12        0.71
  WS02006249           JUNCTION     0.59     0.71     8.31     0  02:11        0.70
  WS02006251           JUNCTION     0.52     0.65     8.32     0  02:11        0.64
  WS02006253           JUNCTION     0.41     0.53     8.33     0  02:11        0.51
  WS02618401           JUNCTION     0.00     0.00     0.00     0  00:00        0.00
  WSA1649              JUNCTION     0.00     0.00     0.00     0  00:00        0.00
  outfall-5            OUTFALL      0.08     0.11     7.78     0  02:12        0.11
  outfall-14           OUTFALL      0.07     0.09     7.75     0  02:30        0.09
  outfall-16           OUTFALL      0.00     0.00     8.39     0  00:00        0.00
  CC-storage           STORAGE      5.25     5.63     8.81     0  01:41        5.63
  
  
  *******************
  Node Inflow Summary
  *******************
  
  -------------------------------------------------------------------------------------------------
                                  Maximum  Maximum                  Lateral       Total        Flow
                                  Lateral    Total  Time of Max      Inflow      Inflow     Balance
                                   Inflow   Inflow   Occurrence      Volume      Volume       Error
  Node                 Type           MLD      MLD  days hr:min    10^6 ltr    10^6 ltr     Percent
  -------------------------------------------------------------------------------------------------
  WS01000070           JUNCTION      0.00     0.00     0  00:00           0           0       0.000 ltr
  WS01000323           JUNCTION      0.00     0.00     0  00:00           0           0       0.000 ltr
  WS01000533           JUNCTION      0.00     0.00     0  00:00           0           0       0.000 ltr
  WS01005172           JUNCTION      0.00     0.00     0  00:00           0           0       0.000 ltr
  WS01005181           JUNCTION      0.00     0.00     0  00:00           0           0       0.000 ltr
  WS01009841           JUNCTION      0.00     0.00     0  00:00           0           0       0.000 ltr
  WS02000078           JUNCTION      0.00     0.00     0  00:00           0           0       0.000 ltr
  WS02000112           JUNCTION      0.00     0.00     0  00:00           0           0       0.000 ltr
  WS02000136           JUNCTION      0.00     0.00     0  00:00           0           0       0.000 ltr
  WS02004053           JUNCTION      0.00     0.00     0  00:00           0           0       0.000 ltr
  WS02004401           JUNCTION      0.05     9.20     0  02:30      0.0086       0.523       5.644
  WS02005192           JUNCTION      3.70     3.70     0  02:23       0.211       0.211       1.087
  WS02005193           JUNCTION      0.09     4.76     0  02:12       0.014       0.238       2.854
  WS02005196           JUNCTION      0.12     3.90     0  02:12      0.0183       0.228       2.696
  WS02006109           JUNCTION      0.08     4.99     0  02:49      0.0129       0.438       5.903
  WS02006110           JUNCTION      0.08     5.07     0  02:49      0.0126       0.428       6.129
  WS02006111           JUNCTION      0.24     8.70     0  02:30      0.0352       0.571       3.782
  WS02006112           JUNCTION      0.18     8.86     0  02:30      0.0263       0.575       6.086
  WS02006113           JUNCTION      3.82     8.49     0  02:30       0.223       0.593       4.187
  WS02006115           JUNCTION      0.08     8.94     0  02:30      0.0129       0.558       7.336
  WS02006116           JUNCTION      0.24     9.15     0  02:30      0.0347       0.558       6.750
  WS02006183           JUNCTION      0.00     0.00     0  00:00           0           0       0.000 ltr
  WS02006228           JUNCTION      5.84     5.84     0  03:00       0.363       0.522       3.616
  WS02006229           JUNCTION      0.13     5.13     0  02:05      0.0193       0.261       6.579
  WS02006230           JUNCTION      0.07     5.11     0  02:05      0.0111        0.27      10.208
  WS02006231           JUNCTION      0.13     4.45     0  02:06      0.0197       0.277       5.784
  WS02006232           JUNCTION      2.64     6.13     0  02:06        0.15       0.406       3.957
  WS02006234           JUNCTION      0.14     6.23     0  02:06      0.0208       0.399       3.589
  WS02006235           JUNCTION      0.14     6.29     0  02:06      0.0215       0.395       2.031
  WS02006238           JUNCTION      0.15     6.10     0  02:06      0.0226       0.394       2.610
  WS02006239           JUNCTION      0.11     6.08     0  02:10      0.0167       0.393       4.037
  WS02006242           JUNCTION      0.08     6.21     0  02:10      0.0124       0.392       4.906
  WS02006240           JUNCTION      0.06     6.14     0  02:10     0.00952       0.389       4.381
  WS02006243           JUNCTION      0.17     6.35     0  02:10      0.0259       0.398       4.518
  WS02006245           JUNCTION      0.07     6.42     0  02:10      0.0109       0.387       3.530
  WS02006247           JUNCTION      2.14     7.93     0  02:10       0.157        0.51       2.268
  WS02006248           JUNCTION      0.12    12.64     0  02:12      0.0185       0.732       1.430
  WS02006249           JUNCTION      0.19     6.50     0  02:12      0.0275       0.349       4.175
  WS02006251           JUNCTION      1.08     6.49     0  02:12      0.0699       0.325       4.394
  WS02006253           JUNCTION      0.11     5.26     0  02:12      0.0166       0.254       2.731
  WS02618401           JUNCTION      0.00     0.00     0  00:00           0           0       0.000 ltr
  WSA1649              JUNCTION      0.00     0.00     0  00:00           0           0       0.000 ltr
  outfall-5            OUTFALL       0.00    12.67     0  02:12           0       0.615       0.000
  outfall-14           OUTFALL       0.00     9.20     0  02:30           0       0.488       0.000
  outfall-16           OUTFALL       0.00     0.00     0  00:00           0           0       0.000 ltr
  CC-storage           STORAGE      12.33    12.33     0  02:27        0.88        0.88       0.019
  
  
  **********************
  Node Surcharge Summary
  **********************
  
  Surcharging occurs when water rises above the top of the highest conduit.
  ---------------------------------------------------------------------
                                               Max. Height   Min. Depth
                                   Hours       Above Crown    Below Rim
  Node                 Type      Surcharged         Meters       Meters
  ---------------------------------------------------------------------
  WS01000070           JUNCTION        3.83          0.000        0.000
  WS01000323           JUNCTION        3.83          0.000        0.000
  WS01000533           JUNCTION        3.83          0.000        2.147
  WS01005172           JUNCTION        3.83          0.000        0.000
  WS01005181           JUNCTION        3.83          0.000        0.000
  WS01009841           JUNCTION        3.83          0.000        0.000
  WS02000078           JUNCTION        3.83          0.000        0.000
  WS02000112           JUNCTION        3.83          0.000        0.000
  WS02000136           JUNCTION        3.83          0.000        0.000
  WS02004053           JUNCTION        3.83          0.000        0.000
  WS02006109           JUNCTION        2.11          0.881        0.957
  WS02006110           JUNCTION        2.13          0.898        0.947
  WS02006111           JUNCTION        2.14          0.916        0.961
  WS02006112           JUNCTION        2.40          1.175        0.508
  WS02006113           JUNCTION        2.13          0.908        1.025
  WS02006115           JUNCTION        2.43          1.194        1.105
  WS02006116           JUNCTION        2.51          1.254        1.096
  WS02006183           JUNCTION        3.83          0.000        0.000
  WS02006228           JUNCTION        2.09          0.855        1.376
  WS02006229           JUNCTION        2.07          0.817        1.637
  WS02006231           JUNCTION        1.99          0.712        0.831
  WS02006232           JUNCTION        1.91          0.582        0.907
  WS02006234           JUNCTION        1.84          0.451        0.806
  WS02006235           JUNCTION        1.83          0.440        0.854
  WS02006238           JUNCTION        1.82          0.430        1.004
  WS02006239           JUNCTION        1.81          0.399        0.930
  WS02006242           JUNCTION        1.76          0.306        0.543
  WS02006240           JUNCTION        1.77          0.318        1.085
  WS02006243           JUNCTION        1.71          0.184        0.596
  WS02006245           JUNCTION        1.68          0.113        0.742
  WS02006247           JUNCTION        1.68          0.093        0.667
  WS02006249           JUNCTION        0.02          0.005        0.383
  WS02618401           JUNCTION        3.83          0.000        0.000
  WSA1649              JUNCTION        3.83          0.000        0.000
  
  
  *********************
  Node Flooding Summary
  *********************
  
  Flooding refers to all water that overflows a node, whether it ponds or not.
  --------------------------------------------------------------------------
                                                             Total   Maximum
                                 Maximum   Time of Max       Flood    Ponded
                        Hours       Rate    Occurrence      Volume     Depth
  Node                 Flooded       MLD   days hr:min    10^6 ltr    Meters
  --------------------------------------------------------------------------
  CC-storage              2.15     12.33      0  02:27       0.721     0.000
  
  
  **********************
  Storage Volume Summary
  **********************
  
  --------------------------------------------------------------------------------------------------
                         Average     Avg  Evap Exfil       Maximum     Max    Time of Max    Maximum
                          Volume    Pcnt  Pcnt  Pcnt        Volume    Pcnt     Occurrence    Outflow
  Storage Unit           1000 m3    Full  Loss  Loss       1000 m3    Full    days hr:min        MLD
  --------------------------------------------------------------------------------------------------
  CC-storage               0.148      93     0     0         0.159     100       0  01:41       0.00
  
  
  ***********************
  Outfall Loading Summary
  ***********************
  
  ---------------------------------------------------------------------------------------------------------------------------------
                         Flow       Avg       Max       Total         Total         Total         Total         Total         Total
                         Freq      Flow      Flow      Volume           COD         NH3-N            TN            TP            SS
  Outfall Node           Pcnt       MLD       MLD    10^6 ltr            kg            kg            kg            kg            kg
  ---------------------------------------------------------------------------------------------------------------------------------
  outfall-5             82.71      8.96     12.67       0.615        83.848         0.000         0.000         0.000         0.000
  outfall-14            82.69      7.12      9.20       0.488        63.390         0.000         0.000         0.000         0.000
  outfall-16             0.00      0.00      0.00       0.000         0.000         0.000         0.000         0.000         0.000
  ---------------------------------------------------------------------------------------------------------------------------------
  System                55.13     16.08     20.37       1.103       147.238         0.000         0.000         0.000         0.000
  
  
  ********************
  Link Flow Summary
  ********************
  
  -----------------------------------------------------------------------------
                                 Maximum  Time of Max   Maximum    Max/    Max/
                                  |Flow|   Occurrence   |Veloc|    Full    Full
  Link                 Type          MLD  days hr:min     m/sec    Flow   Depth
  -----------------------------------------------------------------------------
  WSL2038              CONDUIT      3.79     0  02:12      0.54    0.19    0.78
  WSL2039              CONDUIT      5.16     0  02:12      0.80    0.27    0.86
  WSL2041              CONDUIT      4.67     0  02:12      0.59    0.23    0.82
  WSL2294              CONDUIT      4.99     0  02:49      0.43    0.17    1.00
  WSL2295              CONDUIT      5.07     0  02:49      0.50    0.23    1.00
  WSL2296              CONDUIT      8.70     0  02:30      0.63    0.05    1.00
  WSL2297              CONDUIT      8.86     0  02:30      0.34    0.17    1.00
  WSL2298              CONDUIT      8.49     0  02:30      0.87    0.39    1.00
  WSL2301              CONDUIT      8.94     0  02:30      0.29    0.08    1.00
  WSL2302              CONDUIT      9.15     0  02:30      0.23    0.11    1.00
  WSL2441              CONDUIT      4.91     0  02:49      0.44    0.13    1.00
  WSL2442              CONDUIT      5.04     0  02:05      0.63    0.13    1.00
  WSL2443              CONDUIT      4.33     0  02:06      0.73    0.07    1.00
  WSL2444              CONDUIT      4.46     0  02:06      0.87    0.07    1.00
  WSL2446              CONDUIT      6.11     0  02:06      0.83    0.10    1.00
  WSL2447              CONDUIT      6.16     0  02:06      0.70    0.32    1.00
  WSL2448              CONDUIT      5.96     0  02:06      0.56    0.17    1.00
  WSL2449              CONDUIT      5.98     0  02:10      0.54    0.21    1.00
  WSL2450              CONDUIT      6.08     0  02:10      0.63    0.13    1.00
  WSL2451              CONDUIT      6.13     0  02:10      0.61    0.40    1.00
  WSL2452              CONDUIT      6.20     0  02:10      0.63    0.12    1.00
  WSL2454              CONDUIT      6.36     0  02:10      0.78    0.15    1.00
  WSL2478              CONDUIT      6.52     0  02:10      0.68    0.23    1.00
  WSL2479              CONDUIT      7.95     0  02:10      0.60    0.15    1.00
  WSL2480              CONDUIT      6.64     0  02:12      0.66    0.31    1.00
  WSL2482              CONDUIT      6.34     0  02:12      0.58    0.17    0.96
  WSL2484              CONDUIT      5.64     0  02:12      0.68    0.08    0.84
  WSL2493              CONDUIT      5.01     0  02:05      0.51    0.08    1.00
  8                    CONDUIT     12.67     0  02:12      5.18    0.17    0.28
  19                   CONDUIT      0.00     0  00:00      0.00    0.00    0.00
  17                   CONDUIT      9.20     0  02:30      4.78    0.12    0.23
  CC-Pump-1            PUMP         0.00     0  00:00              0.00
  CC-Pump-2            PUMP         0.00     0  00:00              0.00
  
  
  ***************************
  Flow Classification Summary
  ***************************
  
  -------------------------------------------------------------------------------------
                      Adjusted    ---------- Fraction of Time in Flow Class ---------- 
                       /Actual         Up    Down  Sub   Sup   Up    Down  Norm  Inlet 
  Conduit               Length    Dry  Dry   Dry   Crit  Crit  Crit  Crit  Ltd   Ctrl  
  -------------------------------------------------------------------------------------
  WSL2038                 1.00   0.00  0.00  0.00  1.00  0.00  0.00  0.00  0.01  0.00
  WSL2039                 1.00   0.00  0.00  0.00  1.00  0.00  0.00  0.00  0.00  0.00
  WSL2041                 1.00   0.00  0.00  0.00  1.00  0.00  0.00  0.00  0.34  0.00
  WSL2294                 1.00   0.00  0.00  0.00  1.00  0.00  0.00  0.00  0.00  0.00
  WSL2295                 1.00   0.00  0.00  0.00  1.00  0.00  0.00  0.00  0.00  0.00
  WSL2296                 1.00   0.00  0.00  0.00  1.00  0.00  0.00  0.00  0.17  0.00
  WSL2297                 1.00   0.00  0.00  0.00  1.00  0.00  0.00  0.00  0.00  0.00
  WSL2298                 1.00   0.00  0.00  0.00  0.98  0.02  0.00  0.00  0.00  0.00
  WSL2301                 1.00   0.00  0.00  0.00  1.00  0.00  0.00  0.00  0.04  0.00
  WSL2302                 1.00   0.00  0.00  0.00  1.00  0.00  0.00  0.00  0.01  0.00
  WSL2441                 1.00   0.00  0.00  0.00  1.00  0.00  0.00  0.00  0.00  0.00
  WSL2442                 1.00   0.00  0.00  0.00  1.00  0.00  0.00  0.00  0.17  0.00
  WSL2443                 1.00   0.00  0.00  0.00  1.00  0.00  0.00  0.00  0.31  0.00
  WSL2444                 1.00   0.00  0.00  0.00  0.92  0.08  0.00  0.00  0.25  0.00
  WSL2446                 1.00   0.00  0.00  0.00  0.91  0.09  0.00  0.00  0.03  0.00
  WSL2447                 1.00   0.00  0.00  0.00  1.00  0.00  0.00  0.00  0.00  0.00
  WSL2448                 1.00   0.00  0.00  0.00  1.00  0.00  0.00  0.00  0.00  0.00
  WSL2449                 1.00   0.00  0.00  0.00  1.00  0.00  0.00  0.00  0.03  0.00
  WSL2450                 1.00   0.00  0.00  0.00  1.00  0.00  0.00  0.00  0.45  0.00
  WSL2451                 1.00   0.00  0.00  0.00  1.00  0.00  0.00  0.00  0.00  0.00
  WSL2452                 1.00   0.00  0.00  0.00  1.00  0.00  0.00  0.00  0.46  0.00
  WSL2454                 1.00   0.00  0.00  0.00  1.00  0.00  0.00  0.00  0.02  0.00
  WSL2478                 1.00   0.00  0.00  0.00  1.00  0.00  0.00  0.00  0.00  0.00
  WSL2479                 1.00   0.00  0.00  0.00  1.00  0.00  0.00  0.00  0.50  0.00
  WSL2480                 1.00   0.00  0.00  0.00  1.00  0.00  0.00  0.00  0.00  0.00
  WSL2482                 1.00   0.00  0.00  0.00  1.00  0.00  0.00  0.00  0.51  0.00
  WSL2484                 1.00   0.00  0.00  0.00  1.00  0.00  0.00  0.00  0.52  0.00
  WSL2493                 1.00   0.00  0.00  0.00  1.00  0.00  0.00  0.00  0.05  0.00
  8                       1.00   0.17  0.00  0.00  0.00  0.83  0.00  0.00  0.01  0.00
  19                      1.00   1.00  0.00  0.00  0.00  0.00  0.00  0.00  0.00  0.00
  17                      1.00   0.17  0.00  0.00  0.00  0.83  0.00  0.00  0.00  0.00
  
  
  *************************
  Conduit Surcharge Summary
  *************************
  
  ----------------------------------------------------------------------------
                                                           Hours        Hours 
                         --------- Hours Full --------   Above Full   Capacity
  Conduit                Both Ends  Upstream  Dnstream   Normal Flow   Limited
  ----------------------------------------------------------------------------
  WSL2294                     2.11      2.11      2.13      0.01         0.01
  WSL2295                     2.13      2.13      2.13      0.01         0.01
  WSL2296                     2.14      2.14      2.74      0.01         0.01
  WSL2297                     2.39      2.39      2.43      0.01         0.01
  WSL2298                     2.13      2.13      2.14      0.01         0.01
  WSL2301                     2.43      2.43      2.51      0.01         0.01
  WSL2302                     2.51      2.51      2.59      0.01         0.01
  WSL2441                     2.09      2.09      2.11      0.01         0.01
  WSL2442                     2.09      2.09      2.13      0.01         0.01
  WSL2443                     1.99      1.99      2.09      0.01         0.01
  WSL2444                     1.91      1.91      1.99      0.01         0.01
  WSL2446                     1.84      1.84      1.91      0.01         0.01
  WSL2447                     1.83      1.83      1.84      0.01         0.01
  WSL2448                     1.82      1.82      1.83      0.01         0.01
  WSL2449                     1.81      1.81      1.82      0.01         0.01
  WSL2450                     1.77      1.77      1.81      0.01         0.01
  WSL2451                     1.76      1.76      1.77      0.01         0.01
  WSL2452                     1.71      1.71      1.76      0.01         0.01
  WSL2454                     1.68      1.68      1.71      0.01         0.01
  WSL2478                     1.68      1.68      1.68      0.01         0.01
  WSL2479                     0.70      0.70      1.68      0.01         0.01
  WSL2480                     0.02      0.02      0.70      0.01         0.01
  WSL2482                     0.01      0.01      0.02      0.01         0.01
  WSL2493                     2.07      2.07      2.09      0.01         0.01
  
  
  ***************
  Pumping Summary
  ***************
  
  ---------------------------------------------------------------------------------------------------------
                                                  Min       Avg       Max     Total     Power    % Time Off
                        Percent   Number of      Flow      Flow      Flow    Volume     Usage    Pump Curve
  Pump                 Utilized   Start-Ups       MLD       MLD       MLD  10^6 ltr     Kw-hr    Low   High
  ---------------------------------------------------------------------------------------------------------
  CC-Pump-1                0.00           0      0.00      0.00      0.00     0.000      0.00    0.0    0.0
  CC-Pump-2                0.00           0      0.00      0.00      0.00     0.000      0.00    0.0    0.0
  
  
  ***************************
  Link Pollutant Load Summary
  ***************************
  
  ------------------------------------------------------------------------------------------
                                 COD         NH3-N            TN            TP            SS
  Link                            kg            kg            kg            kg            kg
  ------------------------------------------------------------------------------------------
  WSL2038                     26.947         0.000         0.000         0.000         0.000
  WSL2039                     32.003         0.000         0.000         0.000         0.000
  WSL2041                     29.671         0.000         0.000         0.000         0.000
  WSL2294                     82.969         0.000         0.000         0.000         0.000
  WSL2295                     75.278         0.000         0.000         0.000         0.000
  WSL2296                     74.812         0.000         0.000         0.000         0.000
  WSL2297                     72.256         0.000         0.000         0.000         0.000
  WSL2298                     72.105         0.000         0.000         0.000         0.000
  WSL2301                     69.578         0.000         0.000         0.000         0.000
  WSL2302                     68.796         0.000         0.000         0.000         0.000
  WSL2441                     89.327         0.000         0.000         0.000         0.000
  WSL2442                     51.324         0.000         0.000         0.000         0.000
  WSL2443                     49.009         0.000         0.000         0.000         0.000
  WSL2444                     47.718         0.000         0.000         0.000         0.000
  WSL2446                     46.748         0.000         0.000         0.000         0.000
  WSL2447                     45.899         0.000         0.000         0.000         0.000
  WSL2448                     45.557         0.000         0.000         0.000         0.000
  WSL2449                     44.610         0.000         0.000         0.000         0.000
  WSL2450                     43.893         0.000         0.000         0.000         0.000
  WSL2451                     43.239         0.000         0.000         0.000         0.000
  WSL2452                     43.043         0.000         0.000         0.000         0.000
  WSL2454                     42.321         0.000         0.000         0.000         0.000
  WSL2478                     41.907         0.000         0.000         0.000         0.000
  WSL2479                     56.465         0.000         0.000         0.000         0.000
  WSL2480                     53.132         0.000         0.000         0.000         0.000
  WSL2482                     49.268         0.000         0.000         0.000         0.000
  WSL2484                     35.210         0.000         0.000         0.000         0.000
  WSL2493                     51.786         0.000         0.000         0.000         0.000
  8                           83.848         0.000         0.000         0.000         0.000
  19                           0.000         0.000         0.000         0.000         0.000
  17                          63.390         0.000         0.000         0.000         0.000
  CC-Pump-1                    0.000         0.000         0.000         0.000         0.000
  CC-Pump-2                    0.000         0.000         0.000         0.000         0.000
  

  Analysis begun on:  Mon Aug 19 10:42:29 2019
  Analysis ended on:  Mon Aug 19 10:42:29 2019
  Total elapsed time: < 1 sec