
  EPA STORM WATER MANAGEMENT MODEL - VERSION 5.1 (Build 5.2.0.dev5)
  --------------------------------------------------------------

  
  *********************************************************
  NOTE: The summary statistics displayed in this report are
  based on results found at every computational time step,  
  not just on results from each reporting time step.
  *********************************************************
  
  ****************
  Analysis Options
  ****************
  Flow Units ............... MLD
  Process Models:
    Rainfall/Runoff ........ YES
    RDII ................... NO
    Snowmelt ............... NO
    Groundwater ............ NO
    Flow Routing ........... YES
    Ponding Allowed ........ NO
    Water Quality .......... YES
  Infiltration Method ...... GREEN_AMPT
  Flow Routing Method ...... DYNWAVE
  Surcharge Method ......... EXTRAN
  Starting Date ............ 08/28/2015 08:00:00
  Ending Date .............. 08/28/2015 11:50:00
  Antecedent Dry Days ...... 4.0
  Report Time Step ......... 00:01:00
  Wet Time Step ............ 00:01:00
  Dry Time Step ............ 00:01:00
  Routing Time Step ........ 5.00 sec
  Variable Time Step ....... YES
  Maximum Trials ........... 8
  Number of Threads ........ 1
  Head Tolerance ........... 0.001500 m
  
  
  **************************        Volume         Depth
  Runoff Quantity Continuity     hectare-m            mm
  **************************     ---------       -------
  Total Precipitation ......         1.592        25.733
  Evaporation Loss .........         0.000         0.000
  Infiltration Loss ........         0.560         9.053
  Surface Runoff ...........         0.407         6.578
  Final Storage ............         0.625        10.102
  Continuity Error (%) .....        -0.004
  
  
  **************************           COD         NH3-N            TN            TP            SS
  Runoff Quality Continuity             kg            kg            kg            kg            kg
  **************************    ----------    ----------    ----------    ----------    ----------
  Initial Buildup ..........      2504.640         0.000         0.000         0.000         0.000
  Surface Buildup ..........        19.567         0.000         0.000         0.000         0.000
  Wet Deposition ...........         0.000         0.000         0.000         0.000         0.000
  Sweeping Removal .........         0.000         0.000         0.000         0.000         0.000
  Infiltration Loss ........       141.629         0.000         0.000         0.000         0.000
  BMP Removal ..............         0.000         0.000         0.000         0.000         0.000
  Surface Runoff ...........       835.533         0.000         0.000         0.000         0.000
  Remaining Buildup ........      1544.979         0.000         0.000         0.000         0.000
  Continuity Error (%) .....         0.082         0.000         0.000         0.000         0.000
  
  
  **************************        Volume        Volume
  Flow Routing Continuity        hectare-m      10^6 ltr
  **************************     ---------     ---------
  Dry Weather Inflow .......         0.000         0.000
  Wet Weather Inflow .......         0.406         4.059
  Groundwater Inflow .......         0.000         0.000
  RDII Inflow ..............         0.000         0.000
  External Inflow ..........         0.082         0.822
  External Outflow .........         0.275         2.752
  Flooding Loss ............         0.147         1.469
  Evaporation Loss .........         0.000         0.000
  Exfiltration Loss ........         0.000         0.000
  Initial Stored Volume ....         0.000         0.000
  Final Stored Volume ......         0.062         0.622
  Continuity Error (%) .....         0.774
  
  
  **************************           COD         NH3-N            TN            TP            SS
  Quality Routing Continuity            kg            kg            kg            kg            kg
  **************************    ----------    ----------    ----------    ----------    ----------
  Dry Weather Inflow .......         0.000         0.000         0.000         0.000         0.000
  Wet Weather Inflow .......       833.938         0.000         0.000         0.000         0.000
  Groundwater Inflow .......         0.000         0.000         0.000         0.000         0.000
  RDII Inflow ..............         0.000         0.000         0.000         0.000         0.000
  External Inflow ..........       137.264         0.000         0.000         0.000         0.000
  External Outflow .........       530.641         0.000         0.000         0.000         0.000
  Flooding Loss ............       310.595         0.000         0.000         0.000         0.000
  Exfiltration Loss ........         0.000         0.000         0.000         0.000         0.000
  Mass Reacted .............         0.000         0.000         0.000         0.000         0.000
  Initial Stored Mass ......         0.000         0.000         0.000         0.000         0.000
  Final Stored Mass ........       122.732         0.000         0.000         0.000         0.000
  Continuity Error (%) .....         0.745         0.000         0.000         0.000         0.000
  
  
  *************************
  Highest Continuity Errors
  *************************
  Node WS02006230 (6.91%)
  Node WS02006229 (4.37%)
  Node WS02006231 (3.92%)
  Node WS02006115 (2.86%)
  Node WS02006242 (2.68%)
  
  
  ***************************
  Time-Step Critical Elements
  ***************************
  Link 8 (87.87%)
  Link WSL2448 (10.07%)
  
  
  ********************************
  Highest Flow Instability Indexes
  ********************************
  Link WSL2302 (3)
  Link WSL2301 (3)
  Link WSL2297 (2)
  Link WSL2296 (2)
  Link WSL2298 (2)
  
  
  *************************
  Routing Time Step Summary
  *************************
  Minimum Time Step           :     0.38 sec
  Average Time Step           :     1.01 sec
  Maximum Time Step           :     5.00 sec
  Percent in Steady State     :     0.00
  Average Iterations per Step :     2.07
  Percent Not Converging      :     0.48
  
  
  ***************************
  Subcatchment Runoff Summary
  ***************************
  
  ------------------------------------------------------------------------------------------------------------------------------
                            Total      Total      Total      Total     Imperv       Perv      Total       Total     Peak  Runoff
                           Precip      Runon       Evap      Infil     Runoff     Runoff     Runoff      Runoff   Runoff   Coeff
  Subcatchment                 mm         mm         mm         mm         mm         mm         mm    10^6 ltr      MLD
  ------------------------------------------------------------------------------------------------------------------------------
  1                         25.73      34.91       0.00      10.78      14.42      17.25      31.67        0.38     7.38   0.522
  2                         25.73       0.00       0.00       8.56       6.20       3.42       9.61        0.32     6.80   0.374
  3                         25.73       0.00       0.00       8.63       6.13       2.91       9.04        0.46     9.63   0.351
  35                        25.73       0.00       0.00       8.54       6.21       3.56       9.77        0.30     6.22   0.380
  36                        25.73      19.59       0.00      10.45      10.50       6.86      17.37        1.02    19.67   0.383
  40                        25.73       5.17       0.00       9.12       7.35       4.39      11.74        0.46     9.25   0.380
  41                        25.73       0.00       0.00       8.45       6.26       4.19      10.45        0.20     4.28   0.406
  42                        25.73       0.00       0.00       8.49       6.25       3.95      10.20        0.23     4.90   0.396
  43                        25.73       0.00       0.00       7.99       6.37       7.01      13.38        0.05     1.06   0.520
  44                        25.73     288.19       0.00      16.85      76.84     175.76     252.59        0.93    19.00   0.805
  45                        25.73       0.00       0.00       8.30       6.32       5.19      11.50        0.12     2.53   0.447
  46                        25.73      16.62       0.00       9.93      10.08       8.90      18.98        0.41     7.86   0.448
  47                        25.73       0.00       0.00       8.32       6.31       5.06      11.38        0.13     2.69   0.442
  48                        25.73       7.97       0.00       9.16       8.13       6.96      15.09        0.24     4.77   0.448
  55                        25.73      11.97       0.00       9.26       9.15      10.07      19.22        0.16     3.19   0.510
  56                        25.73      18.20       0.00      10.05      10.45       9.40      19.85        0.42     8.23   0.452
  57                        25.73       0.00       0.00       8.63       6.13       2.93       9.06        0.45     9.47   0.352
  59                        25.73       0.00       0.00       8.25       6.33       5.53      11.86        0.10     2.14   0.461
  60                        25.73      25.87       0.00       9.99      12.56      17.93      30.48        0.16     3.20   0.591
  61                        25.73       0.00       0.00       8.78       5.81       1.71       7.52        1.35    27.94   0.292
  64                        25.73       0.00       0.00       8.34       6.31       4.94      11.24        0.13     2.87   0.437
  
  
  ****************************
  Subcatchment Washoff Summary
  ****************************
  
  ------------------------------------------------------------------------------------------
                                 COD         NH3-N            TN            TP            SS
  Subcatchment                    kg            kg            kg            kg            kg
  ------------------------------------------------------------------------------------------
  1                           71.971         0.000         0.000         0.000         0.000
  2                            0.000         0.000         0.000         0.000         0.000
  3                            0.000         0.000         0.000         0.000         0.000
  35                          69.564         0.000         0.000         0.000         0.000
  36                         356.361         0.000         0.000         0.000         0.000
  40                         128.910         0.000         0.000         0.000         0.000
  41                          48.710         0.000         0.000         0.000         0.000
  42                          55.437         0.000         0.000         0.000         0.000
  43                          12.116         0.000         0.000         0.000         0.000
  44                         327.907         0.000         0.000         0.000         0.000
  45                          29.181         0.000         0.000         0.000         0.000
  46                         133.446         0.000         0.000         0.000         0.000
  47                          31.017         0.000         0.000         0.000         0.000
  48                          71.113         0.000         0.000         0.000         0.000
  55                          47.764         0.000         0.000         0.000         0.000
  56                         136.234         0.000         0.000         0.000         0.000
  57                         103.573         0.000         0.000         0.000         0.000
  59                          24.686         0.000         0.000         0.000         0.000
  60                          44.548         0.000         0.000         0.000         0.000
  61                         284.319         0.000         0.000         0.000         0.000
  64                          33.049         0.000         0.000         0.000         0.000
  ------------------------------------------------------------------------------------------
  System                    2009.908         0.000         0.000         0.000         0.000
  
  
  ******************
  Node Depth Summary
  ******************
  
  ---------------------------------------------------------------------------------
                                 Average  Maximum  Maximum  Time of Max    Reported
                                   Depth    Depth      HGL   Occurrence   Max Depth
  Node                 Type       Meters   Meters   Meters  days hr:min      Meters
  ---------------------------------------------------------------------------------
  WS01000070           JUNCTION     0.00     0.00     0.00     0  00:00        0.00
  WS01000323           JUNCTION     0.00     0.00     0.00     0  00:00        0.00
  WS01000533           JUNCTION     0.00     0.00     6.86     0  00:00        0.00
  WS01005172           JUNCTION     0.00     0.00     0.00     0  00:00        0.00
  WS01005181           JUNCTION     0.00     0.00     0.00     0  00:00        0.00
  WS01009841           JUNCTION     0.00     0.00     0.00     0  00:00        0.00
  WS02000078           JUNCTION     0.00     0.00     0.00     0  00:00        0.00
  WS02000112           JUNCTION     0.00     0.00     0.00     0  00:00        0.00
  WS02000136           JUNCTION     0.00     0.00     0.00     0  00:00        0.00
  WS02004053           JUNCTION     0.00     0.00     0.00     0  00:00        0.00
  WS02004401           JUNCTION     2.16     2.36     8.36     0  03:00        2.36
  WS02005192           JUNCTION     0.42     0.52     8.39     0  02:50        0.52
  WS02005193           JUNCTION     0.46     0.56     8.38     0  02:52        0.56
  WS02005196           JUNCTION     0.44     0.54     8.39     0  02:51        0.54
  WS02006109           JUNCTION     1.58     1.79     8.41     0  03:00        1.78
  WS02006110           JUNCTION     1.59     1.80     8.40     0  03:00        1.80
  WS02006111           JUNCTION     1.60     1.80     8.38     0  03:00        1.80
  WS02006112           JUNCTION     2.05     2.25     8.37     0  03:00        2.25
  WS02006113           JUNCTION     1.60     1.81     8.40     0  03:00        1.80
  WS02006115           JUNCTION     2.07     2.27     8.37     0  03:00        2.27
  WS02006116           JUNCTION     2.12     2.32     8.36     0  03:00        2.32
  WS02006183           JUNCTION     0.00     0.00     0.00     0  00:00        0.00
  WS02006228           JUNCTION     1.55     1.76     8.41     0  03:00        1.76
  WS02006229           JUNCTION     1.51     1.72     8.41     0  03:00        1.72
  WS02006230           JUNCTION     1.45     1.66     8.41     0  03:00        1.66
  WS02006231           JUNCTION     1.31     1.51     8.41     0  03:00        1.51
  WS02006232           JUNCTION     1.19     1.38     8.41     0  03:00        1.38
  WS02006234           JUNCTION     1.07     1.25     8.41     0  03:00        1.24
  WS02006235           JUNCTION     1.06     1.23     8.40     0  03:00        1.23
  WS02006238           JUNCTION     1.05     1.22     8.40     0  03:00        1.22
  WS02006239           JUNCTION     1.02     1.19     8.40     0  03:00        1.19
  WS02006242           JUNCTION     0.94     1.09     8.39     0  03:00        1.09
  WS02006240           JUNCTION     0.95     1.11     8.40     0  03:00        1.10
  WS02006243           JUNCTION     0.82     0.97     8.39     0  03:00        0.96
  WS02006245           JUNCTION     0.76     0.89     8.38     0  03:00        0.89
  WS02006247           JUNCTION     0.74     0.87     8.38     0  03:00        0.87
  WS02006248           JUNCTION     0.66     0.78     8.37     0  02:57        0.78
  WS02006249           JUNCTION     0.66     0.77     8.37     0  02:56        0.77
  WS02006251           JUNCTION     0.59     0.71     8.38     0  02:53        0.71
  WS02006253           JUNCTION     0.48     0.58     8.38     0  02:53        0.58
  WS02618401           JUNCTION     0.00     0.00     0.00     0  00:00        0.00
  WSA1649              JUNCTION     0.00     0.00     0.00     0  00:00        0.00
  outfall-5            OUTFALL      0.12     0.18     7.84     0  02:57        0.18
  outfall-14           OUTFALL      0.11     0.16     7.82     0  03:00        0.16
  outfall-16           OUTFALL      0.00     0.00     8.39     0  00:00        0.00
  CC-storage           STORAGE      5.34     5.63     8.81     0  01:34        5.63
  
  
  *******************
  Node Inflow Summary
  *******************
  
  -------------------------------------------------------------------------------------------------
                                  Maximum  Maximum                  Lateral       Total        Flow
                                  Lateral    Total  Time of Max      Inflow      Inflow     Balance
                                   Inflow   Inflow   Occurrence      Volume      Volume       Error
  Node                 Type           MLD      MLD  days hr:min    10^6 ltr    10^6 ltr     Percent
  -------------------------------------------------------------------------------------------------
  WS01000070           JUNCTION      0.00     0.00     0  00:00           0           0       0.000 ltr
  WS01000323           JUNCTION      0.00     0.00     0  00:00           0           0       0.000 ltr
  WS01000533           JUNCTION      0.00     0.00     0  00:00           0           0       0.000 ltr
  WS01005172           JUNCTION      0.00     0.00     0  00:00           0           0       0.000 ltr
  WS01005181           JUNCTION      0.00     0.00     0  00:00           0           0       0.000 ltr
  WS01009841           JUNCTION      0.00     0.00     0  00:00           0           0       0.000 ltr
  WS02000078           JUNCTION      0.00     0.00     0  00:00           0           0       0.000 ltr
  WS02000112           JUNCTION      0.00     0.00     0  00:00           0           0       0.000 ltr
  WS02000136           JUNCTION      0.00     0.00     0  00:00           0           0       0.000 ltr
  WS02004053           JUNCTION      0.00     0.00     0  00:00           0           0       0.000 ltr
  WS02004401           JUNCTION      0.05    25.60     0  03:00      0.0086        1.28       2.267
  WS02005192           JUNCTION      9.57     9.57     0  02:46       0.469       0.469       0.551
  WS02005193           JUNCTION      0.09     9.75     0  02:45       0.014       0.495       1.492
  WS02005196           JUNCTION      0.12     9.68     0  02:46      0.0183       0.485       1.392
  WS02006109           JUNCTION      0.08    15.99     0  03:01      0.0129        0.93       2.650
  WS02006110           JUNCTION      0.08    16.07     0  03:01      0.0126       0.921       2.718
  WS02006111           JUNCTION      0.24    25.10     0  03:00      0.0352        1.32       1.574
  WS02006112           JUNCTION      0.18    25.26     0  03:00      0.0263        1.33       2.506
  WS02006113           JUNCTION      9.78    24.89     0  03:00       0.485        1.35       1.783
  WS02006115           JUNCTION      0.08    25.34     0  03:00      0.0129        1.31       2.942
  WS02006116           JUNCTION      0.24    25.55     0  03:00      0.0347        1.31       2.691
  WS02006183           JUNCTION      0.00     0.00     0  00:00           0           0       0.000 ltr
  WS02006228           JUNCTION     19.15    19.15     0  03:01       0.958        1.11       1.623
  WS02006229           JUNCTION      0.13     5.82     0  01:57      0.0193       0.361       4.569
  WS02006230           JUNCTION      0.07     5.84     0  01:57      0.0111       0.371       7.425
  WS02006231           JUNCTION      0.13     5.82     0  01:47      0.0197       0.378       4.083
  WS02006232           JUNCTION      6.88     9.79     0  03:00       0.336       0.692       2.246
  WS02006234           JUNCTION      0.14     9.90     0  03:00      0.0208       0.684       2.043
  WS02006235           JUNCTION      0.14    10.02     0  03:00      0.0215       0.681       1.144
  WS02006238           JUNCTION      0.15    10.13     0  03:00      0.0226       0.683       1.468
  WS02006239           JUNCTION      0.11    10.23     0  03:00      0.0167       0.682       2.278
  WS02006242           JUNCTION      0.08    10.36     0  03:00      0.0124       0.683       2.753
  WS02006240           JUNCTION      0.06    10.29     0  03:00     0.00952       0.679       2.460
  WS02006243           JUNCTION      0.17    10.52     0  03:00      0.0259       0.691       2.548
  WS02006245           JUNCTION      0.07    10.58     0  03:00      0.0109       0.681       1.980
  WS02006247           JUNCTION      7.51    18.06     0  03:00       0.406        1.05       1.092
  WS02006248           JUNCTION      0.12    30.60     0  02:58      0.0185        1.63       0.660
  WS02006249           JUNCTION      0.19    13.22     0  02:47      0.0275       0.706       2.093
  WS02006251           JUNCTION      3.25    13.06     0  02:47       0.169       0.681       2.171
  WS02006253           JUNCTION      0.11     9.84     0  02:46      0.0166       0.511       1.466
  WS02618401           JUNCTION      0.00     0.00     0  00:00           0           0       0.000 ltr
  WSA1649              JUNCTION      0.00     0.00     0  00:00           0           0       0.000 ltr
  outfall-5            OUTFALL       0.00    30.60     0  02:57           0        1.51       0.000
  outfall-14           OUTFALL       0.00    25.60     0  03:00           0        1.25       0.000
  outfall-16           OUTFALL       0.00     0.00     0  00:00           0           0       0.000 ltr
  CC-storage           STORAGE      29.56    29.56     0  02:49        1.63        1.63       0.013
  
  
  **********************
  Node Surcharge Summary
  **********************
  
  Surcharging occurs when water rises above the top of the highest conduit.
  ---------------------------------------------------------------------
                                               Max. Height   Min. Depth
                                   Hours       Above Crown    Below Rim
  Node                 Type      Surcharged         Meters       Meters
  ---------------------------------------------------------------------
  WS01000070           JUNCTION        3.83          0.000        0.000
  WS01000323           JUNCTION        3.83          0.000        0.000
  WS01000533           JUNCTION        3.83          0.000        2.147
  WS01005172           JUNCTION        3.83          0.000        0.000
  WS01005181           JUNCTION        3.83          0.000        0.000
  WS01009841           JUNCTION        3.83          0.000        0.000
  WS02000078           JUNCTION        3.83          0.000        0.000
  WS02000112           JUNCTION        3.83          0.000        0.000
  WS02000136           JUNCTION        3.83          0.000        0.000
  WS02004053           JUNCTION        3.83          0.000        0.000
  WS02006109           JUNCTION        2.22          0.988        0.850
  WS02006110           JUNCTION        2.23          1.003        0.842
  WS02006111           JUNCTION        2.24          1.004        0.873
  WS02006112           JUNCTION        2.44          1.254        0.429
  WS02006113           JUNCTION        2.23          1.007        0.926
  WS02006115           JUNCTION        2.46          1.268        1.031
  WS02006116           JUNCTION        2.53          1.324        1.026
  WS02006183           JUNCTION        3.83          0.000        0.000
  WS02006228           JUNCTION        2.21          0.962        1.269
  WS02006229           JUNCTION        2.19          0.921        1.533
  WS02006231           JUNCTION        2.13          0.809        0.734
  WS02006232           JUNCTION        2.08          0.679        0.810
  WS02006234           JUNCTION        2.00          0.547        0.710
  WS02006235           JUNCTION        2.00          0.535        0.759
  WS02006238           JUNCTION        1.99          0.524        0.910
  WS02006239           JUNCTION        1.98          0.490        0.839
  WS02006242           JUNCTION        1.95          0.391        0.458
  WS02006240           JUNCTION        1.95          0.406        0.997
  WS02006243           JUNCTION        1.90          0.265        0.515
  WS02006245           JUNCTION        1.88          0.190        0.665
  WS02006247           JUNCTION        1.88          0.167        0.593
  WS02006249           JUNCTION        1.57          0.070        0.318
  WS02006251           JUNCTION        0.34          0.008        1.502
  WS02618401           JUNCTION        3.83          0.000        0.000
  WSA1649              JUNCTION        3.83          0.000        0.000
  
  
  *********************
  Node Flooding Summary
  *********************
  
  Flooding refers to all water that overflows a node, whether it ponds or not.
  --------------------------------------------------------------------------
                                                             Total   Maximum
                                 Maximum   Time of Max       Flood    Ponded
                        Hours       Rate    Occurrence      Volume     Depth
  Node                 Flooded       MLD   days hr:min    10^6 ltr    Meters
  --------------------------------------------------------------------------
  CC-storage              2.25     29.56      0  02:49       1.469     0.000
  
  
  **********************
  Storage Volume Summary
  **********************
  
  --------------------------------------------------------------------------------------------------
                         Average     Avg  Evap Exfil       Maximum     Max    Time of Max    Maximum
                          Volume    Pcnt  Pcnt  Pcnt        Volume    Pcnt     Occurrence    Outflow
  Storage Unit           1000 m3    Full  Loss  Loss       1000 m3    Full    days hr:min        MLD
  --------------------------------------------------------------------------------------------------
  CC-storage               0.151      95     0     0         0.159     100       0  01:34       0.00
  
  
  ***********************
  Outfall Loading Summary
  ***********************
  
  ---------------------------------------------------------------------------------------------------------------------------------
                         Flow       Avg       Max       Total         Total         Total         Total         Total         Total
                         Freq      Flow      Flow      Volume           COD         NH3-N            TN            TP            SS
  Outfall Node           Pcnt       MLD       MLD    10^6 ltr            kg            kg            kg            kg            kg
  ---------------------------------------------------------------------------------------------------------------------------------
  outfall-5             87.94     19.98     30.60       1.506       283.179         0.000         0.000         0.000         0.000
  outfall-14            87.95     16.55     25.60       1.245       247.482         0.000         0.000         0.000         0.000
  outfall-16             0.00      0.00      0.00       0.000         0.000         0.000         0.000         0.000         0.000
  ---------------------------------------------------------------------------------------------------------------------------------
  System                58.63     36.53     56.19       2.752       530.661         0.000         0.000         0.000         0.000
  
  
  ********************
  Link Flow Summary
  ********************
  
  -----------------------------------------------------------------------------
                                 Maximum  Time of Max   Maximum    Max/    Max/
                                  |Flow|   Occurrence   |Veloc|    Full    Full
  Link                 Type          MLD  days hr:min     m/sec    Flow   Depth
  -----------------------------------------------------------------------------
  WSL2038              CONDUIT      9.57     0  02:46      0.57    0.48    0.88
  WSL2039              CONDUIT      9.74     0  02:46      0.86    0.50    0.95
  WSL2041              CONDUIT      9.66     0  02:45      0.64    0.47    0.92
  WSL2294              CONDUIT     15.99     0  03:01      0.43    0.54    1.00
  WSL2295              CONDUIT     16.07     0  03:01      0.50    0.72    1.00
  WSL2296              CONDUIT     25.10     0  03:00      0.63    0.14    1.00
  WSL2297              CONDUIT     25.26     0  03:00      0.37    0.48    1.00
  WSL2298              CONDUIT     24.90     0  03:00      0.87    1.15    1.00
  WSL2301              CONDUIT     25.34     0  03:00      0.37    0.23    1.00
  WSL2302              CONDUIT     25.55     0  03:00      0.38    0.31    1.00
  WSL2441              CONDUIT     15.91     0  03:01      0.44    0.41    1.00
  WSL2442              CONDUIT      5.77     0  01:57      0.63    0.15    1.00
  WSL2443              CONDUIT      5.69     0  01:47      0.73    0.09    1.00
  WSL2444              CONDUIT      5.83     0  01:47      0.90    0.09    1.00
  WSL2446              CONDUIT      9.78     0  03:00      0.86    0.17    1.00
  WSL2447              CONDUIT      9.90     0  03:00      0.76    0.51    1.00
  WSL2448              CONDUIT     10.01     0  03:00      0.63    0.28    1.00
  WSL2449              CONDUIT     10.13     0  03:00      0.60    0.35    1.00
  WSL2450              CONDUIT     10.23     0  03:00      0.69    0.21    1.00
  WSL2451              CONDUIT     10.29     0  03:00      0.67    0.67    1.00
  WSL2452              CONDUIT     10.37     0  03:00      0.70    0.20    1.00
  WSL2454              CONDUIT     10.52     0  03:00      0.85    0.25    1.00
  WSL2478              CONDUIT     10.58     0  03:00      0.73    0.37    1.00
  WSL2479              CONDUIT     18.06     0  03:00      0.65    0.34    1.00
  WSL2480              CONDUIT     13.22     0  02:47      0.72    0.61    1.00
  WSL2482              CONDUIT     13.06     0  02:47      0.64    0.34    1.00
  WSL2484              CONDUIT      9.83     0  02:46      0.73    0.14    0.91
  WSL2493              CONDUIT      5.69     0  01:57      0.51    0.10    1.00
  8                    CONDUIT     30.60     0  02:57      6.61    0.40    0.44
  19                   CONDUIT      0.00     0  00:00      0.00    0.00    0.00
  17                   CONDUIT     25.60     0  03:00      6.37    0.33    0.40
  CC-Pump-1            PUMP         0.00     0  00:00              0.00
  CC-Pump-2            PUMP         0.00     0  00:00              0.00
  
  
  ***************************
  Flow Classification Summary
  ***************************
  
  -------------------------------------------------------------------------------------
                      Adjusted    ---------- Fraction of Time in Flow Class ---------- 
                       /Actual         Up    Down  Sub   Sup   Up    Down  Norm  Inlet 
  Conduit               Length    Dry  Dry   Dry   Crit  Crit  Crit  Crit  Ltd   Ctrl  
  -------------------------------------------------------------------------------------
  WSL2038                 1.00   0.00  0.00  0.00  1.00  0.00  0.00  0.00  0.01  0.00
  WSL2039                 1.00   0.00  0.00  0.00  1.00  0.00  0.00  0.00  0.00  0.00
  WSL2041                 1.00   0.00  0.00  0.00  1.00  0.00  0.00  0.00  0.30  0.00
  WSL2294                 1.00   0.00  0.00  0.00  1.00  0.00  0.00  0.00  0.00  0.00
  WSL2295                 1.00   0.00  0.00  0.00  1.00  0.00  0.00  0.00  0.00  0.00
  WSL2296                 1.00   0.00  0.00  0.00  1.00  0.00  0.00  0.00  0.17  0.00
  WSL2297                 1.00   0.00  0.00  0.00  1.00  0.00  0.00  0.00  0.00  0.00
  WSL2298                 1.00   0.00  0.00  0.00  0.98  0.02  0.00  0.00  0.00  0.00
  WSL2301                 1.00   0.00  0.00  0.00  1.00  0.00  0.00  0.00  0.04  0.00
  WSL2302                 1.00   0.00  0.00  0.00  1.00  0.00  0.00  0.00  0.01  0.00
  WSL2441                 1.00   0.00  0.00  0.00  1.00  0.00  0.00  0.00  0.00  0.00
  WSL2442                 1.00   0.00  0.00  0.00  1.00  0.00  0.00  0.00  0.17  0.00
  WSL2443                 1.00   0.00  0.00  0.00  1.00  0.00  0.00  0.00  0.31  0.00
  WSL2444                 1.00   0.00  0.00  0.00  0.94  0.06  0.00  0.00  0.23  0.00
  WSL2446                 1.00   0.00  0.00  0.00  0.94  0.06  0.00  0.00  0.02  0.00
  WSL2447                 1.00   0.00  0.00  0.00  1.00  0.00  0.00  0.00  0.00  0.00
  WSL2448                 1.00   0.00  0.00  0.00  1.00  0.00  0.00  0.00  0.00  0.00
  WSL2449                 1.00   0.00  0.00  0.00  1.00  0.00  0.00  0.00  0.03  0.00
  WSL2450                 1.00   0.00  0.00  0.00  1.00  0.00  0.00  0.00  0.42  0.00
  WSL2451                 1.00   0.00  0.00  0.00  1.00  0.00  0.00  0.00  0.00  0.00
  WSL2452                 1.00   0.00  0.00  0.00  1.00  0.00  0.00  0.00  0.43  0.00
  WSL2454                 1.00   0.00  0.00  0.00  1.00  0.00  0.00  0.00  0.02  0.00
  WSL2478                 1.00   0.00  0.00  0.00  1.00  0.00  0.00  0.00  0.00  0.00
  WSL2479                 1.00   0.00  0.00  0.00  1.00  0.00  0.00  0.00  0.46  0.00
  WSL2480                 1.00   0.00  0.00  0.00  1.00  0.00  0.00  0.00  0.00  0.00
  WSL2482                 1.00   0.00  0.00  0.00  1.00  0.00  0.00  0.00  0.47  0.00
  WSL2484                 1.00   0.00  0.00  0.00  1.00  0.00  0.00  0.00  0.47  0.00
  WSL2493                 1.00   0.00  0.00  0.00  1.00  0.00  0.00  0.00  0.05  0.00
  8                       1.00   0.12  0.00  0.00  0.00  0.88  0.00  0.00  0.01  0.00
  19                      1.00   1.00  0.00  0.00  0.00  0.00  0.00  0.00  0.00  0.00
  17                      1.00   0.12  0.00  0.00  0.00  0.88  0.00  0.00  0.00  0.00
  
  
  *************************
  Conduit Surcharge Summary
  *************************
  
  ----------------------------------------------------------------------------
                                                           Hours        Hours 
                         --------- Hours Full --------   Above Full   Capacity
  Conduit                Both Ends  Upstream  Dnstream   Normal Flow   Limited
  ----------------------------------------------------------------------------
  WSL2294                     2.22      2.22      2.23      0.01         0.01
  WSL2295                     2.23      2.23      2.23      0.01         0.01
  WSL2296                     2.24      2.24      2.74      0.01         0.01
  WSL2297                     2.44      2.44      2.46      0.01         0.01
  WSL2298                     2.23      2.23      2.24      0.41         0.42
  WSL2301                     2.46      2.46      2.53      0.01         0.01
  WSL2302                     2.53      2.53      2.60      0.01         0.01
  WSL2441                     2.21      2.21      2.22      0.01         0.01
  WSL2442                     2.21      2.21      2.23      0.01         0.01
  WSL2443                     2.13      2.13      2.21      0.01         0.01
  WSL2444                     2.08      2.08      2.13      0.01         0.01
  WSL2446                     2.00      2.00      2.08      0.01         0.01
  WSL2447                     2.00      2.00      2.00      0.01         0.01
  WSL2448                     1.99      1.99      2.00      0.01         0.01
  WSL2449                     1.98      1.98      1.99      0.01         0.01
  WSL2450                     1.95      1.95      1.98      0.01         0.01
  WSL2451                     1.95      1.95      1.95      0.01         0.01
  WSL2452                     1.90      1.90      1.95      0.01         0.01
  WSL2454                     1.88      1.88      1.90      0.01         0.01
  WSL2478                     1.88      1.88      1.88      0.01         0.01
  WSL2479                     1.72      1.72      1.88      0.01         0.01
  WSL2480                     1.57      1.57      1.72      0.01         0.01
  WSL2482                     0.34      0.34      1.57      0.01         0.01
  WSL2484                     0.01      0.01      0.34      0.01         0.01
  WSL2493                     2.19      2.19      2.21      0.01         0.01
  
  
  ***************
  Pumping Summary
  ***************
  
  ---------------------------------------------------------------------------------------------------------
                                                  Min       Avg       Max     Total     Power    % Time Off
                        Percent   Number of      Flow      Flow      Flow    Volume     Usage    Pump Curve
  Pump                 Utilized   Start-Ups       MLD       MLD       MLD  10^6 ltr     Kw-hr    Low   High
  ---------------------------------------------------------------------------------------------------------
  CC-Pump-1                0.00           0      0.00      0.00      0.00     0.000      0.00    0.0    0.0
  CC-Pump-2                0.00           0      0.00      0.00      0.00     0.000      0.00    0.0    0.0
  
  
  ***************************
  Link Pollutant Load Summary
  ***************************
  
  ------------------------------------------------------------------------------------------
                                 COD         NH3-N            TN            TP            SS
  Link                            kg            kg            kg            kg            kg
  ------------------------------------------------------------------------------------------
  WSL2038                    106.376         0.000         0.000         0.000         0.000
  WSL2039                    111.513         0.000         0.000         0.000         0.000
  WSL2041                    109.038         0.000         0.000         0.000         0.000
  WSL2294                    275.267         0.000         0.000         0.000         0.000
  WSL2295                    266.494         0.000         0.000         0.000         0.000
  WSL2296                    264.879         0.000         0.000         0.000         0.000
  WSL2297                    260.476         0.000         0.000         0.000         0.000
  WSL2298                    262.695         0.000         0.000         0.000         0.000
  WSL2301                    255.910         0.000         0.000         0.000         0.000
  WSL2302                    252.863         0.000         0.000         0.000         0.000
  WSL2441                    283.061         0.000         0.000         0.000         0.000
  WSL2442                     90.629         0.000         0.000         0.000         0.000
  WSL2443                     87.072         0.000         0.000         0.000         0.000
  WSL2444                     85.024         0.000         0.000         0.000         0.000
  WSL2446                     83.652         0.000         0.000         0.000         0.000
  WSL2447                     82.609         0.000         0.000         0.000         0.000
  WSL2448                     82.415         0.000         0.000         0.000         0.000
  WSL2449                     80.968         0.000         0.000         0.000         0.000
  WSL2450                     79.507         0.000         0.000         0.000         0.000
  WSL2451                     77.764         0.000         0.000         0.000         0.000
  WSL2452                     76.414         0.000         0.000         0.000         0.000
  WSL2454                     74.942         0.000         0.000         0.000         0.000
  WSL2478                     73.858         0.000         0.000         0.000         0.000
  WSL2479                    143.521         0.000         0.000         0.000         0.000
  WSL2480                    166.970         0.000         0.000         0.000         0.000
  WSL2482                    163.010         0.000         0.000         0.000         0.000
  WSL2484                    114.866         0.000         0.000         0.000         0.000
  WSL2493                     91.618         0.000         0.000         0.000         0.000
  8                          283.179         0.000         0.000         0.000         0.000
  19                           0.000         0.000         0.000         0.000         0.000
  17                         247.482         0.000         0.000         0.000         0.000
  CC-Pump-1                    0.000         0.000         0.000         0.000         0.000
  CC-Pump-2                    0.000         0.000         0.000         0.000         0.000
  

  Analysis begun on:  Mon Aug 19 10:42:42 2019
  Analysis ended on:  Mon Aug 19 10:42:42 2019
  Total elapsed time: < 1 sec