
  EPA STORM WATER MANAGEMENT MODEL - VERSION 5.1 (Build 5.2.0.dev5)
  --------------------------------------------------------------

  
  *********************************************************
  NOTE: The summary statistics displayed in this report are
  based on results found at every computational time step,  
  not just on results from each reporting time step.
  *********************************************************
  
  ****************
  Analysis Options
  ****************
  Flow Units ............... MLD
  Process Models:
    Rainfall/Runoff ........ YES
    RDII ................... NO
    Snowmelt ............... NO
    Groundwater ............ NO
    Flow Routing ........... YES
    Ponding Allowed ........ NO
    Water Quality .......... YES
  Infiltration Method ...... GREEN_AMPT
  Flow Routing Method ...... DYNWAVE
  Surcharge Method ......... EXTRAN
  Starting Date ............ 08/28/2015 08:00:00
  Ending Date .............. 08/28/2015 11:50:00
  Antecedent Dry Days ...... 4.0
  Report Time Step ......... 00:01:00
  Wet Time Step ............ 00:01:00
  Dry Time Step ............ 00:01:00
  Routing Time Step ........ 5.00 sec
  Variable Time Step ....... YES
  Maximum Trials ........... 8
  Number of Threads ........ 1
  Head Tolerance ........... 0.001500 m
  
  
  **************************        Volume         Depth
  Runoff Quantity Continuity     hectare-m            mm
  **************************     ---------       -------
  Total Precipitation ......         2.149        34.738
  Evaporation Loss .........         0.000         0.000
  Infiltration Loss ........         0.665        10.746
  Surface Runoff ...........         0.665        10.752
  Final Storage ............         0.819        13.241
  Continuity Error (%) .....        -0.004
  
  
  **************************           COD         NH3-N            TN            TP            SS
  Runoff Quality Continuity             kg            kg            kg            kg            kg
  **************************    ----------    ----------    ----------    ----------    ----------
  Initial Buildup ..........      2504.640         0.000         0.000         0.000         0.000
  Surface Buildup ..........        19.297         0.000         0.000         0.000         0.000
  Wet Deposition ...........         0.000         0.000         0.000         0.000         0.000
  Sweeping Removal .........         0.000         0.000         0.000         0.000         0.000
  Infiltration Loss ........       193.186         0.000         0.000         0.000         0.000
  BMP Removal ..............         0.000         0.000         0.000         0.000         0.000
  Surface Runoff ...........      1314.296         0.000         0.000         0.000         0.000
  Remaining Buildup ........      1016.809         0.000         0.000         0.000         0.000
  Continuity Error (%) .....        -0.014         0.000         0.000         0.000         0.000
  
  
  **************************        Volume        Volume
  Flow Routing Continuity        hectare-m      10^6 ltr
  **************************     ---------     ---------
  Dry Weather Inflow .......         0.000         0.000
  Wet Weather Inflow .......         0.664         6.636
  Groundwater Inflow .......         0.000         0.000
  RDII Inflow ..............         0.000         0.000
  External Inflow ..........         0.082         0.822
  External Outflow .........         0.460         4.599
  Flooding Loss ............         0.220         2.198
  Evaporation Loss .........         0.000         0.000
  Exfiltration Loss ........         0.000         0.000
  Initial Stored Volume ....         0.000         0.000
  Final Stored Volume ......         0.062         0.624
  Continuity Error (%) .....         0.486
  
  
  **************************           COD         NH3-N            TN            TP            SS
  Quality Routing Continuity            kg            kg            kg            kg            kg
  **************************    ----------    ----------    ----------    ----------    ----------
  Dry Weather Inflow .......         0.000         0.000         0.000         0.000         0.000
  Wet Weather Inflow .......      1312.681         0.000         0.000         0.000         0.000
  Groundwater Inflow .......         0.000         0.000         0.000         0.000         0.000
  RDII Inflow ..............         0.000         0.000         0.000         0.000         0.000
  External Inflow ..........       137.263         0.000         0.000         0.000         0.000
  External Outflow .........       848.786         0.000         0.000         0.000         0.000
  Flooding Loss ............       519.436         0.000         0.000         0.000         0.000
  Exfiltration Loss ........         0.000         0.000         0.000         0.000         0.000
  Mass Reacted .............         0.000         0.000         0.000         0.000         0.000
  Initial Stored Mass ......         0.000         0.000         0.000         0.000         0.000
  Final Stored Mass ........        74.154         0.000         0.000         0.000         0.000
  Continuity Error (%) .....         0.522         0.000         0.000         0.000         0.000
  
  
  *************************
  Highest Continuity Errors
  *************************
  Node WS02006230 (4.92%)
  Node WS02006229 (3.02%)
  Node WS02006231 (2.76%)
  Node WS02006242 (1.78%)
  Node WS02006115 (1.73%)
  
  
  ***************************
  Time-Step Critical Elements
  ***************************
  Link 8 (90.10%)
  Link WSL2448 (7.68%)
  
  
  ********************************
  Highest Flow Instability Indexes
  ********************************
  Link WSL2302 (2)
  Link WSL2301 (2)
  Link WSL2297 (2)
  Link WSL2296 (2)
  Link WSL2298 (1)
  
  
  *************************
  Routing Time Step Summary
  *************************
  Minimum Time Step           :     0.01 sec
  Average Time Step           :     0.87 sec
  Maximum Time Step           :     5.00 sec
  Percent in Steady State     :    -0.00
  Average Iterations per Step :     2.07
  Percent Not Converging      :     0.43
  
  
  ***************************
  Subcatchment Runoff Summary
  ***************************
  
  ------------------------------------------------------------------------------------------------------------------------------
                            Total      Total      Total      Total     Imperv       Perv      Total       Total     Peak  Runoff
                           Precip      Runon       Evap      Infil     Runoff     Runoff     Runoff      Runoff   Runoff   Coeff
  Subcatchment                 mm         mm         mm         mm         mm         mm         mm    10^6 ltr      MLD
  ------------------------------------------------------------------------------------------------------------------------------
  1                         34.74      59.65       0.00      13.06      22.68      34.67      57.35        0.69    10.90   0.608
  2                         34.74       0.00       0.00      10.05       8.46       6.61      15.07        0.51     8.77   0.434
  3                         34.74       0.00       0.00      10.18       8.40       5.71      14.11        0.72    12.43   0.406
  35                        34.74       0.00       0.00      10.02       8.47       6.85      15.32        0.46     8.02   0.441
  36                        34.74      32.04       0.00      12.73      15.70      14.30      30.00        1.77    26.08   0.449
  40                        34.74       8.13       0.00      10.83      10.31       8.65      18.96        0.74    11.93   0.442
  41                        34.74       0.00       0.00       9.86       8.52       7.91      16.43        0.32     5.52   0.473
  42                        34.74       0.00       0.00       9.92       8.51       7.52      16.02        0.37     6.32   0.461
  43                        34.74       0.00       0.00       9.08       8.63      12.16      20.79        0.07     1.37   0.598
  44                        34.74     495.85       0.00      20.29     130.53     322.44     452.97        1.68    27.02   0.854
  45                        34.74       0.00       0.00       9.59       8.57       9.50      18.07        0.19     3.26   0.520
  46                        34.74      26.85       0.00      11.89      14.81      17.52      32.33        0.69    10.30   0.525
  47                        34.74       0.00       0.00       9.63       8.57       9.31      17.88        0.20     3.47   0.515
  48                        34.74      12.53       0.00      10.78      11.49      13.21      24.71        0.39     6.17   0.523
  55                        34.74      18.79       0.00      10.84      13.08      18.53      31.60        0.26     4.14   0.590
  56                        34.74      29.27       0.00      12.04      15.39      18.51      33.90        0.73    10.86   0.530
  57                        34.74       0.00       0.00      10.17       8.40       5.75      14.15        0.71    12.22   0.407
  59                        34.74       0.00       0.00       9.50       8.59      10.02      18.61        0.16     2.76   0.536
  60                        34.74      40.68       0.00      11.68      18.45      32.16      50.61        0.26     4.19   0.671
  61                        34.74       0.00       0.00      10.47       8.09       3.49      11.58        2.08    36.03   0.333
  64                        34.74       0.00       0.00       9.66       8.56       9.11      17.67        0.21     3.70   0.509
  
  
  ****************************
  Subcatchment Washoff Summary
  ****************************
  
  ------------------------------------------------------------------------------------------
                                 COD         NH3-N            TN            TP            SS
  Subcatchment                    kg            kg            kg            kg            kg
  ------------------------------------------------------------------------------------------
  1                          117.537         0.000         0.000         0.000         0.000
  2                            0.000         0.000         0.000         0.000         0.000
  3                            0.000         0.000         0.000         0.000         0.000
  35                         108.347         0.000         0.000         0.000         0.000
  36                         497.840         0.000         0.000         0.000         0.000
  40                         193.098         0.000         0.000         0.000         0.000
  41                          73.290         0.000         0.000         0.000         0.000
  42                          84.508         0.000         0.000         0.000         0.000
  43                          15.609         0.000         0.000         0.000         0.000
  44                         481.171         0.000         0.000         0.000         0.000
  45                          41.518         0.000         0.000         0.000         0.000
  46                         176.814         0.000         0.000         0.000         0.000
  47                          44.439         0.000         0.000         0.000         0.000
  48                          95.734         0.000         0.000         0.000         0.000
  55                          60.729         0.000         0.000         0.000         0.000
  56                         180.834         0.000         0.000         0.000         0.000
  57                         166.752         0.000         0.000         0.000         0.000
  59                          34.455         0.000         0.000         0.000         0.000
  60                          59.689         0.000         0.000         0.000         0.000
  61                         488.108         0.000         0.000         0.000         0.000
  64                          47.691         0.000         0.000         0.000         0.000
  ------------------------------------------------------------------------------------------
  System                    2968.164         0.000         0.000         0.000         0.000
  
  
  ******************
  Node Depth Summary
  ******************
  
  ---------------------------------------------------------------------------------
                                 Average  Maximum  Maximum  Time of Max    Reported
                                   Depth    Depth      HGL   Occurrence   Max Depth
  Node                 Type       Meters   Meters   Meters  days hr:min      Meters
  ---------------------------------------------------------------------------------
  WS01000070           JUNCTION     0.00     0.00     0.00     0  00:00        0.00
  WS01000323           JUNCTION     0.00     0.00     0.00     0  00:00        0.00
  WS01000533           JUNCTION     0.00     0.00     6.86     0  00:00        0.00
  WS01005172           JUNCTION     0.00     0.00     0.00     0  00:00        0.00
  WS01005181           JUNCTION     0.00     0.00     0.00     0  00:00        0.00
  WS01009841           JUNCTION     0.00     0.00     0.00     0  00:00        0.00
  WS02000078           JUNCTION     0.00     0.00     0.00     0  00:00        0.00
  WS02000112           JUNCTION     0.00     0.00     0.00     0  00:00        0.00
  WS02000136           JUNCTION     0.00     0.00     0.00     0  00:00        0.00
  WS02004053           JUNCTION     0.00     0.00     0.00     0  00:00        0.00
  WS02004401           JUNCTION     2.22     2.38     8.38     0  02:38        2.38
  WS02005192           JUNCTION     0.47     0.57     8.44     0  02:26        0.57
  WS02005193           JUNCTION     0.51     0.60     8.42     0  02:27        0.60
  WS02005196           JUNCTION     0.49     0.58     8.43     0  02:26        0.58
  WS02006109           JUNCTION     1.66     1.84     8.46     0  02:41        1.84
  WS02006110           JUNCTION     1.67     1.85     8.45     0  02:39        1.85
  WS02006111           JUNCTION     1.67     1.84     8.42     0  02:38        1.84
  WS02006112           JUNCTION     2.11     2.28     8.40     0  02:38        2.28
  WS02006113           JUNCTION     1.67     1.85     8.44     0  02:38        1.85
  WS02006115           JUNCTION     2.13     2.29     8.39     0  02:38        2.29
  WS02006116           JUNCTION     2.18     2.35     8.39     0  02:38        2.35
  WS02006183           JUNCTION     0.00     0.00     0.00     0  00:00        0.00
  WS02006228           JUNCTION     1.63     1.82     8.47     0  02:42        1.82
  WS02006229           JUNCTION     1.59     1.78     8.47     0  02:42        1.78
  WS02006230           JUNCTION     1.54     1.72     8.47     0  02:41        1.72
  WS02006231           JUNCTION     1.39     1.56     8.46     0  02:41        1.56
  WS02006232           JUNCTION     1.27     1.43     8.46     0  02:41        1.43
  WS02006234           JUNCTION     1.14     1.30     8.46     0  02:41        1.30
  WS02006235           JUNCTION     1.13     1.28     8.45     0  02:41        1.28
  WS02006238           JUNCTION     1.12     1.27     8.45     0  02:41        1.27
  WS02006239           JUNCTION     1.09     1.23     8.44     0  02:41        1.23
  WS02006242           JUNCTION     1.00     1.13     8.43     0  03:00        1.13
  WS02006240           JUNCTION     1.01     1.15     8.44     0  02:41        1.15
  WS02006243           JUNCTION     0.88     1.00     8.42     0  02:41        1.00
  WS02006245           JUNCTION     0.82     0.93     8.42     0  02:41        0.93
  WS02006247           JUNCTION     0.80     0.90     8.41     0  02:41        0.90
  WS02006248           JUNCTION     0.71     0.80     8.39     0  02:36        0.80
  WS02006249           JUNCTION     0.70     0.80     8.40     0  02:33        0.80
  WS02006251           JUNCTION     0.65     0.74     8.41     0  02:29        0.74
  WS02006253           JUNCTION     0.53     0.61     8.41     0  02:29        0.61
  WS02618401           JUNCTION     0.00     0.00     0.00     0  00:00        0.00
  WSA1649              JUNCTION     0.00     0.00     0.00     0  00:00        0.00
  outfall-5            OUTFALL      0.16     0.20     7.87     0  02:36        0.20
  outfall-14           OUTFALL      0.14     0.18     7.84     0  02:38        0.18
  outfall-16           OUTFALL      0.00     0.00     8.39     0  00:00        0.00
  CC-storage           STORAGE      5.39     5.63     8.81     0  01:28        5.63
  
  
  *******************
  Node Inflow Summary
  *******************
  
  -------------------------------------------------------------------------------------------------
                                  Maximum  Maximum                  Lateral       Total        Flow
                                  Lateral    Total  Time of Max      Inflow      Inflow     Balance
                                   Inflow   Inflow   Occurrence      Volume      Volume       Error
  Node                 Type           MLD      MLD  days hr:min    10^6 ltr    10^6 ltr     Percent
  -------------------------------------------------------------------------------------------------
  WS01000070           JUNCTION      0.00     0.00     0  00:00           0           0       0.000 ltr
  WS01000323           JUNCTION      0.00     0.00     0  00:00           0           0       0.000 ltr
  WS01000533           JUNCTION      0.00     0.00     0  00:00           0           0       0.000 ltr
  WS01005172           JUNCTION      0.00     0.00     0  00:00           0           0       0.000 ltr
  WS01005181           JUNCTION      0.00     0.00     0  00:00           0           0       0.000 ltr
  WS01009841           JUNCTION      0.00     0.00     0  00:00           0           0       0.000 ltr
  WS02000078           JUNCTION      0.00     0.00     0  00:00           0           0       0.000 ltr
  WS02000112           JUNCTION      0.00     0.00     0  00:00           0           0       0.000 ltr
  WS02000136           JUNCTION      0.00     0.00     0  00:00           0           0       0.000 ltr
  WS02004053           JUNCTION      0.00     0.00     0  00:00           0           0       0.000 ltr
  WS02004401           JUNCTION      0.05    32.75     0  02:38      0.0086        2.12       1.370
  WS02005192           JUNCTION     12.32    12.32     0  02:22       0.723       0.723       0.376
  WS02005193           JUNCTION      0.09    12.50     0  02:22       0.014        0.75       1.027
  WS02005196           JUNCTION      0.12    12.43     0  02:22      0.0183       0.739       0.956
  WS02006109           JUNCTION      0.08    21.69     0  03:00      0.0129        1.51       1.618
  WS02006110           JUNCTION      0.08    21.76     0  03:00      0.0126         1.5       1.653
  WS02006111           JUNCTION      0.24    32.26     0  02:38      0.0352        2.16       0.952
  WS02006112           JUNCTION      0.18    32.42     0  02:38      0.0263        2.16       1.508
  WS02006113           JUNCTION     12.58    32.05     0  02:38       0.744        2.18       1.087
  WS02006115           JUNCTION      0.08    32.49     0  02:38      0.0129        2.15       1.761
  WS02006116           JUNCTION      0.24    32.70     0  02:38      0.0347        2.15       1.601
  WS02006183           JUNCTION      0.00     0.00     0  00:00           0           0       0.000 ltr
  WS02006228           JUNCTION     27.17    27.17     0  03:01         1.7        1.85       0.967
  WS02006229           JUNCTION      0.13     7.67     0  01:41      0.0193       0.518       3.109
  WS02006230           JUNCTION      0.07     7.69     0  01:41      0.0111        0.53       5.176
  WS02006231           JUNCTION      0.13     6.78     0  01:37      0.0197       0.537       2.837
  WS02006232           JUNCTION      8.85    12.86     0  02:43        0.52        1.03       1.486
  WS02006234           JUNCTION      0.14    12.98     0  02:43      0.0208        1.02       1.355
  WS02006235           JUNCTION      0.14    13.11     0  02:43      0.0215        1.02       0.760
  WS02006238           JUNCTION      0.15    13.25     0  02:43      0.0226        1.02       0.978
  WS02006239           JUNCTION      0.11    13.35     0  02:43      0.0167        1.02       1.500
  WS02006242           JUNCTION      0.08    13.48     0  02:43      0.0124        1.03       1.811
  WS02006240           JUNCTION      0.06    13.41     0  02:43     0.00952        1.02       1.627
  WS02006243           JUNCTION      0.17    13.64     0  02:43      0.0259        1.04       1.670
  WS02006245           JUNCTION      0.07    13.70     0  02:43      0.0109        1.03       1.290
  WS02006247           JUNCTION     11.04    24.49     0  03:00       0.716        1.71       0.664
  WS02006248           JUNCTION      0.12    39.32     0  02:36      0.0185        2.64       0.413
  WS02006249           JUNCTION      0.19    16.90     0  02:22      0.0275        1.06       1.391
  WS02006251           JUNCTION      4.20    16.74     0  02:23       0.271        1.04       1.449
  WS02006253           JUNCTION      0.11    12.59     0  02:22      0.0166       0.766       1.018
  WS02618401           JUNCTION      0.00     0.00     0  00:00           0           0       0.000 ltr
  WSA1649              JUNCTION      0.00     0.00     0  00:00           0           0       0.000 ltr
  outfall-5            OUTFALL       0.00    39.32     0  02:36           0        2.51       0.000
  outfall-14           OUTFALL       0.00    32.75     0  02:38           0        2.08       0.000
  outfall-16           OUTFALL       0.00     0.00     0  00:00           0           0       0.000 ltr
  CC-storage           STORAGE      37.65    37.65     0  02:24        2.36        2.36       0.001
  
  
  **********************
  Node Surcharge Summary
  **********************
  
  Surcharging occurs when water rises above the top of the highest conduit.
  ---------------------------------------------------------------------
                                               Max. Height   Min. Depth
                                   Hours       Above Crown    Below Rim
  Node                 Type      Surcharged         Meters       Meters
  ---------------------------------------------------------------------
  WS01000070           JUNCTION        3.83          0.000        0.000
  WS01000323           JUNCTION        3.83          0.000        0.000
  WS01000533           JUNCTION        3.83          0.000        2.147
  WS01005172           JUNCTION        3.83          0.000        0.000
  WS01005181           JUNCTION        3.83          0.000        0.000
  WS01009841           JUNCTION        3.83          0.000        0.000
  WS02000078           JUNCTION        3.83          0.000        0.000
  WS02000112           JUNCTION        3.83          0.000        0.000
  WS02000136           JUNCTION        3.83          0.000        0.000
  WS02004053           JUNCTION        3.83          0.000        0.000
  WS02005193           JUNCTION        0.22          0.002        2.615
  WS02006109           JUNCTION        2.33          1.038        0.800
  WS02006110           JUNCTION        2.33          1.048        0.797
  WS02006111           JUNCTION        2.34          1.037        0.840
  WS02006112           JUNCTION        2.48          1.282        0.401
  WS02006113           JUNCTION        2.33          1.049        0.884
  WS02006115           JUNCTION        2.50          1.294        1.005
  WS02006116           JUNCTION        2.57          1.349        1.001
  WS02006183           JUNCTION        3.83          0.000        0.000
  WS02006228           JUNCTION        2.32          1.017        1.214
  WS02006229           JUNCTION        2.30          0.976        1.478
  WS02006231           JUNCTION        2.26          0.864        0.679
  WS02006232           JUNCTION        2.22          0.733        0.756
  WS02006234           JUNCTION        2.17          0.597        0.660
  WS02006235           JUNCTION        2.17          0.582        0.712
  WS02006238           JUNCTION        2.17          0.571        0.863
  WS02006239           JUNCTION        2.16          0.535        0.794
  WS02006242           JUNCTION        2.13          0.431        0.418
  WS02006240           JUNCTION        2.13          0.448        0.955
  WS02006243           JUNCTION        2.10          0.303        0.477
  WS02006245           JUNCTION        2.08          0.226        0.629
  WS02006247           JUNCTION        2.08          0.201        0.559
  WS02006249           JUNCTION        2.06          0.100        0.288
  WS02006251           JUNCTION        1.03          0.042        1.468
  WS02618401           JUNCTION        3.83          0.000        0.000
  WSA1649              JUNCTION        3.83          0.000        0.000
  
  
  *********************
  Node Flooding Summary
  *********************
  
  Flooding refers to all water that overflows a node, whether it ponds or not.
  --------------------------------------------------------------------------
                                                             Total   Maximum
                                 Maximum   Time of Max       Flood    Ponded
                        Hours       Rate    Occurrence      Volume     Depth
  Node                 Flooded       MLD   days hr:min    10^6 ltr    Meters
  --------------------------------------------------------------------------
  CC-storage              2.35     37.65      0  02:24       2.199     0.000
  
  
  **********************
  Storage Volume Summary
  **********************
  
  --------------------------------------------------------------------------------------------------
                         Average     Avg  Evap Exfil       Maximum     Max    Time of Max    Maximum
                          Volume    Pcnt  Pcnt  Pcnt        Volume    Pcnt     Occurrence    Outflow
  Storage Unit           1000 m3    Full  Loss  Loss       1000 m3    Full    days hr:min        MLD
  --------------------------------------------------------------------------------------------------
  CC-storage               0.152      96     0     0         0.159     100       0  01:28       0.00
  
  
  ***********************
  Outfall Loading Summary
  ***********************
  
  ---------------------------------------------------------------------------------------------------------------------------------
                         Flow       Avg       Max       Total         Total         Total         Total         Total         Total
                         Freq      Flow      Flow      Volume           COD         NH3-N            TN            TP            SS
  Outfall Node           Pcnt       MLD       MLD    10^6 ltr            kg            kg            kg            kg            kg
  ---------------------------------------------------------------------------------------------------------------------------------
  outfall-5             90.73     29.47     39.32       2.515       454.780         0.000         0.000         0.000         0.000
  outfall-14            90.73     24.45     32.75       2.084       394.026         0.000         0.000         0.000         0.000
  outfall-16             0.00      0.00      0.00       0.000         0.000         0.000         0.000         0.000         0.000
  ---------------------------------------------------------------------------------------------------------------------------------
  System                60.49     53.92     72.06       4.599       848.806         0.000         0.000         0.000         0.000
  
  
  ********************
  Link Flow Summary
  ********************
  
  -----------------------------------------------------------------------------
                                 Maximum  Time of Max   Maximum    Max/    Max/
                                  |Flow|   Occurrence   |Veloc|    Full    Full
  Link                 Type          MLD  days hr:min     m/sec    Flow   Depth
  -----------------------------------------------------------------------------
  WSL2038              CONDUIT     12.32     0  02:22      0.66    0.61    0.96
  WSL2039              CONDUIT     12.49     0  02:22      0.99    0.64    1.00
  WSL2041              CONDUIT     12.42     0  02:22      0.74    0.61    0.98
  WSL2294              CONDUIT     21.68     0  03:00      0.50    0.73    1.00
  WSL2295              CONDUIT     21.75     0  03:00      0.50    0.98    1.00
  WSL2296              CONDUIT     32.26     0  02:38      0.74    0.18    1.00
  WSL2297              CONDUIT     32.42     0  02:38      0.48    0.62    1.00
  WSL2298              CONDUIT     32.05     0  02:38      0.87    1.48    1.00
  WSL2301              CONDUIT     32.49     0  02:38      0.48    0.30    1.00
  WSL2302              CONDUIT     32.70     0  02:38      0.48    0.40    1.00
  WSL2441              CONDUIT     21.61     0  03:00      0.50    0.55    1.00
  WSL2442              CONDUIT      7.61     0  01:41      0.63    0.19    1.00
  WSL2443              CONDUIT      6.65     0  01:37      0.73    0.10    1.00
  WSL2444              CONDUIT      6.78     0  01:40      0.95    0.11    1.00
  WSL2446              CONDUIT     12.86     0  02:43      0.90    0.22    1.00
  WSL2447              CONDUIT     12.98     0  02:43      0.85    0.67    1.00
  WSL2448              CONDUIT     13.11     0  02:43      0.70    0.37    1.00
  WSL2449              CONDUIT     13.25     0  02:43      0.67    0.46    1.00
  WSL2450              CONDUIT     13.35     0  02:43      0.76    0.28    1.00
  WSL2451              CONDUIT     13.41     0  02:43      0.75    0.87    1.00
  WSL2452              CONDUIT     13.48     0  02:43      0.79    0.26    1.00
  WSL2454              CONDUIT     13.64     0  02:43      0.95    0.32    1.00
  WSL2478              CONDUIT     13.70     0  02:43      0.83    0.48    1.00
  WSL2479              CONDUIT     24.49     0  03:00      0.74    0.47    1.00
  WSL2480              CONDUIT     16.90     0  02:22      0.81    0.78    1.00
  WSL2482              CONDUIT     16.73     0  02:22      0.73    0.44    1.00
  WSL2484              CONDUIT     12.58     0  02:22      0.81    0.18    0.94
  WSL2493              CONDUIT      7.54     0  01:41      0.51    0.13    1.00
  8                    CONDUIT     39.32     0  02:36      7.04    0.52    0.51
  19                   CONDUIT      0.00     0  00:00      0.00    0.00    0.00
  17                   CONDUIT     32.75     0  02:38      6.80    0.42    0.46
  CC-Pump-1            PUMP         0.00     0  00:00              0.00
  CC-Pump-2            PUMP         0.00     0  00:00              0.00
  
  
  ***************************
  Flow Classification Summary
  ***************************
  
  -------------------------------------------------------------------------------------
                      Adjusted    ---------- Fraction of Time in Flow Class ---------- 
                       /Actual         Up    Down  Sub   Sup   Up    Down  Norm  Inlet 
  Conduit               Length    Dry  Dry   Dry   Crit  Crit  Crit  Crit  Ltd   Ctrl  
  -------------------------------------------------------------------------------------
  WSL2038                 1.00   0.00  0.00  0.00  1.00  0.00  0.00  0.00  0.01  0.00
  WSL2039                 1.00   0.00  0.00  0.00  0.98  0.02  0.00  0.00  0.00  0.00
  WSL2041                 1.00   0.00  0.00  0.00  1.00  0.00  0.00  0.00  0.28  0.00
  WSL2294                 1.00   0.00  0.00  0.00  1.00  0.00  0.00  0.00  0.00  0.00
  WSL2295                 1.00   0.00  0.00  0.00  1.00  0.00  0.00  0.00  0.00  0.00
  WSL2296                 1.00   0.00  0.00  0.00  1.00  0.00  0.00  0.00  0.17  0.00
  WSL2297                 1.00   0.00  0.00  0.00  1.00  0.00  0.00  0.00  0.00  0.00
  WSL2298                 1.00   0.00  0.00  0.00  0.98  0.02  0.00  0.00  0.00  0.00
  WSL2301                 1.00   0.00  0.00  0.00  1.00  0.00  0.00  0.00  0.04  0.00
  WSL2302                 1.00   0.00  0.00  0.00  1.00  0.00  0.00  0.00  0.01  0.00
  WSL2441                 1.00   0.00  0.00  0.00  1.00  0.00  0.00  0.00  0.00  0.00
  WSL2442                 1.00   0.00  0.00  0.00  1.00  0.00  0.00  0.00  0.17  0.00
  WSL2443                 1.00   0.00  0.00  0.00  1.00  0.00  0.00  0.00  0.30  0.00
  WSL2444                 1.00   0.00  0.00  0.00  0.95  0.05  0.00  0.00  0.22  0.00
  WSL2446                 1.00   0.00  0.00  0.00  0.95  0.05  0.00  0.00  0.02  0.00
  WSL2447                 1.00   0.00  0.00  0.00  1.00  0.00  0.00  0.00  0.00  0.00
  WSL2448                 1.00   0.00  0.00  0.00  1.00  0.00  0.00  0.00  0.00  0.00
  WSL2449                 1.00   0.00  0.00  0.00  1.00  0.00  0.00  0.00  0.02  0.00
  WSL2450                 1.00   0.00  0.00  0.00  1.00  0.00  0.00  0.00  0.37  0.00
  WSL2451                 1.00   0.00  0.00  0.00  1.00  0.00  0.00  0.00  0.00  0.00
  WSL2452                 1.00   0.00  0.00  0.00  1.00  0.00  0.00  0.00  0.40  0.00
  WSL2454                 1.00   0.00  0.00  0.00  1.00  0.00  0.00  0.00  0.02  0.00
  WSL2478                 1.00   0.00  0.00  0.00  1.00  0.00  0.00  0.00  0.00  0.00
  WSL2479                 1.00   0.00  0.00  0.00  1.00  0.00  0.00  0.00  0.40  0.00
  WSL2480                 1.00   0.00  0.00  0.00  1.00  0.00  0.00  0.00  0.00  0.00
  WSL2482                 1.00   0.00  0.00  0.00  1.00  0.00  0.00  0.00  0.38  0.00
  WSL2484                 1.00   0.00  0.00  0.00  1.00  0.00  0.00  0.00  0.43  0.00
  WSL2493                 1.00   0.00  0.00  0.00  1.00  0.00  0.00  0.00  0.05  0.00
  8                       1.00   0.09  0.00  0.00  0.00  0.91  0.00  0.00  0.01  0.00
  19                      1.00   1.00  0.00  0.00  0.00  0.00  0.00  0.00  0.00  0.00
  17                      1.00   0.09  0.00  0.00  0.00  0.91  0.00  0.00  0.00  0.00
  
  
  *************************
  Conduit Surcharge Summary
  *************************
  
  ----------------------------------------------------------------------------
                                                           Hours        Hours 
                         --------- Hours Full --------   Above Full   Capacity
  Conduit                Both Ends  Upstream  Dnstream   Normal Flow   Limited
  ----------------------------------------------------------------------------
  WSL2039                     0.22      0.22      0.76      0.01         0.01
  WSL2041                     0.01      0.01      0.22      0.01         0.01
  WSL2294                     2.33      2.33      2.33      0.01         0.01
  WSL2295                     2.33      2.33      2.33      0.01         0.01
  WSL2296                     2.34      2.34      2.74      0.01         0.01
  WSL2297                     2.48      2.48      2.50      0.01         0.01
  WSL2298                     2.33      2.33      2.34      1.18         1.19
  WSL2301                     2.50      2.50      2.57      0.01         0.01
  WSL2302                     2.57      2.57      2.61      0.01         0.01
  WSL2441                     2.32      2.32      2.33      0.01         0.01
  WSL2442                     2.31      2.31      2.34      0.01         0.01
  WSL2443                     2.26      2.26      2.31      0.01         0.01
  WSL2444                     2.21      2.21      2.26      0.01         0.01
  WSL2446                     2.17      2.17      2.21      0.01         0.01
  WSL2447                     2.17      2.17      2.17      0.01         0.01
  WSL2448                     2.17      2.17      2.17      0.01         0.01
  WSL2449                     2.16      2.16      2.17      0.01         0.01
  WSL2450                     2.13      2.13      2.16      0.01         0.01
  WSL2451                     2.13      2.13      2.13      0.01         0.01
  WSL2452                     2.10      2.10      2.13      0.01         0.01
  WSL2454                     2.08      2.08      2.10      0.01         0.01
  WSL2478                     2.08      2.08      2.08      0.01         0.01
  WSL2479                     2.05      2.05      2.08      0.01         0.01
  WSL2480                     2.05      2.06      2.05      0.01         0.01
  WSL2482                     1.03      1.03      2.06      0.01         0.01
  WSL2484                     0.01      0.01      1.03      0.01         0.01
  WSL2493                     2.30      2.30      2.32      0.01         0.01
  
  
  ***************
  Pumping Summary
  ***************
  
  ---------------------------------------------------------------------------------------------------------
                                                  Min       Avg       Max     Total     Power    % Time Off
                        Percent   Number of      Flow      Flow      Flow    Volume     Usage    Pump Curve
  Pump                 Utilized   Start-Ups       MLD       MLD       MLD  10^6 ltr     Kw-hr    Low   High
  ---------------------------------------------------------------------------------------------------------
  CC-Pump-1                0.00           0      0.00      0.00      0.00     0.000      0.00    0.0    0.0
  CC-Pump-2                0.00           0      0.00      0.00      0.00     0.000      0.00    0.0    0.0
  
  
  ***************************
  Link Pollutant Load Summary
  ***************************
  
  ------------------------------------------------------------------------------------------
                                 COD         NH3-N            TN            TP            SS
  Link                            kg            kg            kg            kg            kg
  ------------------------------------------------------------------------------------------
  WSL2038                    169.855         0.000         0.000         0.000         0.000
  WSL2039                    175.878         0.000         0.000         0.000         0.000
  WSL2041                    172.831         0.000         0.000         0.000         0.000
  WSL2294                    403.474         0.000         0.000         0.000         0.000
  WSL2295                    396.744         0.000         0.000         0.000         0.000
  WSL2296                    399.292         0.000         0.000         0.000         0.000
  WSL2297                    399.611         0.000         0.000         0.000         0.000
  WSL2298                    395.443         0.000         0.000         0.000         0.000
  WSL2301                    398.143         0.000         0.000         0.000         0.000
  WSL2302                    399.308         0.000         0.000         0.000         0.000
  WSL2441                    410.073         0.000         0.000         0.000         0.000
  WSL2442                    123.132         0.000         0.000         0.000         0.000
  WSL2443                    120.900         0.000         0.000         0.000         0.000
  WSL2444                    120.743         0.000         0.000         0.000         0.000
  WSL2446                    120.919         0.000         0.000         0.000         0.000
  WSL2447                    121.121         0.000         0.000         0.000         0.000
  WSL2448                    121.484         0.000         0.000         0.000         0.000
  WSL2449                    121.704         0.000         0.000         0.000         0.000
  WSL2450                    121.940         0.000         0.000         0.000         0.000
  WSL2451                    122.214         0.000         0.000         0.000         0.000
  WSL2452                    123.196         0.000         0.000         0.000         0.000
  WSL2454                    124.040         0.000         0.000         0.000         0.000
  WSL2478                    124.269         0.000         0.000         0.000         0.000
  WSL2479                    240.548         0.000         0.000         0.000         0.000
  WSL2480                    246.121         0.000         0.000         0.000         0.000
  WSL2482                    241.819         0.000         0.000         0.000         0.000
  WSL2484                    180.354         0.000         0.000         0.000         0.000
  WSL2493                    122.185         0.000         0.000         0.000         0.000
  8                          454.780         0.000         0.000         0.000         0.000
  19                           0.000         0.000         0.000         0.000         0.000
  17                         394.026         0.000         0.000         0.000         0.000
  CC-Pump-1                    0.000         0.000         0.000         0.000         0.000
  CC-Pump-2                    0.000         0.000         0.000         0.000         0.000
  

  Analysis begun on:  Mon Aug 19 10:42:17 2019
  Analysis ended on:  Mon Aug 19 10:42:17 2019
  Total elapsed time: < 1 sec