
  EPA STORM WATER MANAGEMENT MODEL - VERSION 5.1 (Build 5.2.0.dev5)
  --------------------------------------------------------------

  
  *********************************************************
  NOTE: The summary statistics displayed in this report are
  based on results found at every computational time step,  
  not just on results from each reporting time step.
  *********************************************************
  
  ****************
  Analysis Options
  ****************
  Flow Units ............... MLD
  Process Models:
    Rainfall/Runoff ........ YES
    RDII ................... NO
    Snowmelt ............... NO
    Groundwater ............ NO
    Flow Routing ........... YES
    Ponding Allowed ........ NO
    Water Quality .......... YES
  Infiltration Method ...... GREEN_AMPT
  Flow Routing Method ...... DYNWAVE
  Surcharge Method ......... EXTRAN
  Starting Date ............ 08/28/2015 08:00:00
  Ending Date .............. 08/28/2015 11:50:00
  Antecedent Dry Days ...... 4.0
  Report Time Step ......... 00:01:00
  Wet Time Step ............ 00:01:00
  Dry Time Step ............ 00:01:00
  Routing Time Step ........ 5.00 sec
  Variable Time Step ....... YES
  Maximum Trials ........... 8
  Number of Threads ........ 1
  Head Tolerance ........... 0.001500 m
  
  
  **************************        Volume         Depth
  Runoff Quantity Continuity     hectare-m            mm
  **************************     ---------       -------
  Total Precipitation ......         1.333        21.544
  Evaporation Loss .........         0.000         0.000
  Infiltration Loss ........         0.512         8.277
  Surface Runoff ...........         0.305         4.928
  Final Storage ............         0.516         8.341
  Continuity Error (%) .....        -0.006
  
  
  **************************           COD         NH3-N            TN            TP            SS
  Runoff Quality Continuity             kg            kg            kg            kg            kg
  **************************    ----------    ----------    ----------    ----------    ----------
  Initial Buildup ..........      2504.640         0.000         0.000         0.000         0.000
  Surface Buildup ..........        19.717         0.000         0.000         0.000         0.000
  Wet Deposition ...........         0.000         0.000         0.000         0.000         0.000
  Sweeping Removal .........         0.000         0.000         0.000         0.000         0.000
  Infiltration Loss ........       106.668         0.000         0.000         0.000         0.000
  BMP Removal ..............         0.000         0.000         0.000         0.000         0.000
  Surface Runoff ...........       558.910         0.000         0.000         0.000         0.000
  Remaining Buildup ........      1856.451         0.000         0.000         0.000         0.000
  Continuity Error (%) .....         0.092         0.000         0.000         0.000         0.000
  
  
  **************************        Volume        Volume
  Flow Routing Continuity        hectare-m      10^6 ltr
  **************************     ---------     ---------
  Dry Weather Inflow .......         0.000         0.000
  Wet Weather Inflow .......         0.304         3.040
  Groundwater Inflow .......         0.000         0.000
  RDII Inflow ..............         0.000         0.000
  External Inflow ..........         0.082         0.822
  External Outflow .........         0.203         2.034
  Flooding Loss ............         0.117         1.165
  Evaporation Loss .........         0.000         0.000
  Exfiltration Loss ........         0.000         0.000
  Initial Stored Volume ....         0.000         0.000
  Final Stored Volume ......         0.062         0.622
  Continuity Error (%) .....         1.055
  
  
  **************************           COD         NH3-N            TN            TP            SS
  Quality Routing Continuity            kg            kg            kg            kg            kg
  **************************    ----------    ----------    ----------    ----------    ----------
  Dry Weather Inflow .......         0.000         0.000         0.000         0.000         0.000
  Wet Weather Inflow .......       557.512         0.000         0.000         0.000         0.000
  Groundwater Inflow .......         0.000         0.000         0.000         0.000         0.000
  RDII Inflow ..............         0.000         0.000         0.000         0.000         0.000
  External Inflow ..........       137.266         0.000         0.000         0.000         0.000
  External Outflow .........       346.879         0.000         0.000         0.000         0.000
  Flooding Loss ............       207.617         0.000         0.000         0.000         0.000
  Exfiltration Loss ........         0.000         0.000         0.000         0.000         0.000
  Mass Reacted .............         0.000         0.000         0.000         0.000         0.000
  Initial Stored Mass ......         0.000         0.000         0.000         0.000         0.000
  Final Stored Mass ........       132.742         0.000         0.000         0.000         0.000
  Continuity Error (%) .....         1.085         0.000         0.000         0.000         0.000
  
  
  *************************
  Highest Continuity Errors
  *************************
  Node WS02006230 (8.01%)
  Node WS02006229 (5.23%)
  Node WS02006231 (4.65%)
  Node WS02006115 (3.83%)
  Node WS02006116 (3.52%)
  
  
  ***************************
  Time-Step Critical Elements
  ***************************
  Link 8 (86.53%)
  Link WSL2448 (11.18%)
  
  
  ********************************
  Highest Flow Instability Indexes
  ********************************
  Link WSL2302 (3)
  Link WSL2301 (3)
  Link WSL2297 (3)
  Link WSL2296 (2)
  Link WSL2298 (2)
  
  
  *************************
  Routing Time Step Summary
  *************************
  Minimum Time Step           :     0.50 sec
  Average Time Step           :     1.10 sec
  Maximum Time Step           :     5.00 sec
  Percent in Steady State     :    -0.00
  Average Iterations per Step :     2.07
  Percent Not Converging      :     0.35
  
  
  ***************************
  Subcatchment Runoff Summary
  ***************************
  
  ------------------------------------------------------------------------------------------------------------------------------
                            Total      Total      Total      Total     Imperv       Perv      Total       Total     Peak  Runoff
                           Precip      Runon       Evap      Infil     Runoff     Runoff     Runoff      Runoff   Runoff   Coeff
  Subcatchment                 mm         mm         mm         mm         mm         mm         mm    10^6 ltr      MLD
  ------------------------------------------------------------------------------------------------------------------------------
  1                         21.54      25.36       0.00       9.74      11.10      11.16      22.26        0.27     6.22   0.475
  2                         21.54       0.00       0.00       7.87       5.14       2.22       7.36        0.25     6.64   0.342
  3                         21.54       0.00       0.00       7.92       5.07       1.88       6.94        0.35     9.31   0.322
  35                        21.54       0.00       0.00       7.86       5.15       2.32       7.47        0.23     6.09   0.347
  36                        21.54      14.65       0.00       9.42       8.29       4.36      12.66        0.75    17.55   0.350
  40                        21.54       3.94       0.00       8.33       6.00       2.84       8.84        0.35     8.89   0.347
  41                        21.54       0.00       0.00       7.79       5.21       2.76       7.96        0.15     4.24   0.370
  42                        21.54       0.00       0.00       7.82       5.19       2.59       7.78        0.18     4.83   0.361
  43                        21.54       0.00       0.00       7.46       5.32       4.83      10.15        0.04     1.08   0.471
  44                        21.54     210.40       0.00      15.28      56.59     122.09     178.69        0.66    14.05   0.770
  45                        21.54       0.00       0.00       7.69       5.26       3.47       8.73        0.09     2.54   0.405
  46                        21.54      12.43       0.00       9.03       8.04       5.79      13.83        0.30     7.32   0.407
  47                        21.54       0.00       0.00       7.70       5.26       3.38       8.64        0.10     2.69   0.401
  48                        21.54       6.05       0.00       8.40       6.62       4.60      11.22        0.18     4.65   0.407
  55                        21.54       9.08       0.00       8.52       7.41       6.76      14.17        0.12     3.10   0.463
  56                        21.54      13.65       0.00       9.13       8.32       6.11      14.43        0.31     7.57   0.410
  57                        21.54       0.00       0.00       7.91       5.07       1.89       6.96        0.35     9.16   0.323
  59                        21.54       0.00       0.00       7.65       5.28       3.72       9.00        0.08     2.15   0.418
  60                        21.54      19.64       0.00       9.18       9.99      12.29      22.27        0.12     2.95   0.541
  61                        21.54       0.00       0.00       8.02       4.75       1.08       5.83        1.05    26.21   0.271
  64                        21.54       0.00       0.00       7.72       5.25       3.29       8.54        0.10     2.87   0.396
  
  
  ****************************
  Subcatchment Washoff Summary
  ****************************
  
  ------------------------------------------------------------------------------------------
                                 COD         NH3-N            TN            TP            SS
  Subcatchment                    kg            kg            kg            kg            kg
  ------------------------------------------------------------------------------------------
  1                           46.573         0.000         0.000         0.000         0.000
  2                            0.000         0.000         0.000         0.000         0.000
  3                            0.000         0.000         0.000         0.000         0.000
  35                          46.212         0.000         0.000         0.000         0.000
  36                         254.771         0.000         0.000         0.000         0.000
  40                          86.597         0.000         0.000         0.000         0.000
  41                          32.775         0.000         0.000         0.000         0.000
  42                          37.117         0.000         0.000         0.000         0.000
  43                           8.814         0.000         0.000         0.000         0.000
  44                         224.923         0.000         0.000         0.000         0.000
  45                          20.107         0.000         0.000         0.000         0.000
  46                          98.717         0.000         0.000         0.000         0.000
  47                          21.305         0.000         0.000         0.000         0.000
  48                          50.666         0.000         0.000         0.000         0.000
  55                          36.401         0.000         0.000         0.000         0.000
  56                         103.390         0.000         0.000         0.000         0.000
  57                          68.036         0.000         0.000         0.000         0.000
  59                          17.167         0.000         0.000         0.000         0.000
  60                          35.385         0.000         0.000         0.000         0.000
  61                         182.977         0.000         0.000         0.000         0.000
  64                          22.628         0.000         0.000         0.000         0.000
  ------------------------------------------------------------------------------------------
  System                    1394.563         0.000         0.000         0.000         0.000
  
  
  ******************
  Node Depth Summary
  ******************
  
  ---------------------------------------------------------------------------------
                                 Average  Maximum  Maximum  Time of Max    Reported
                                   Depth    Depth      HGL   Occurrence   Max Depth
  Node                 Type       Meters   Meters   Meters  days hr:min      Meters
  ---------------------------------------------------------------------------------
  WS01000070           JUNCTION     0.00     0.00     0.00     0  00:00        0.00
  WS01000323           JUNCTION     0.00     0.00     0.00     0  00:00        0.00
  WS01000533           JUNCTION     0.00     0.00     6.86     0  00:00        0.00
  WS01005172           JUNCTION     0.00     0.00     0.00     0  00:00        0.00
  WS01005181           JUNCTION     0.00     0.00     0.00     0  00:00        0.00
  WS01009841           JUNCTION     0.00     0.00     0.00     0  00:00        0.00
  WS02000078           JUNCTION     0.00     0.00     0.00     0  00:00        0.00
  WS02000112           JUNCTION     0.00     0.00     0.00     0  00:00        0.00
  WS02000136           JUNCTION     0.00     0.00     0.00     0  00:00        0.00
  WS02004053           JUNCTION     0.00     0.00     0.00     0  00:00        0.00
  WS02004401           JUNCTION     2.13     2.35     8.35     0  03:01        2.35
  WS02005192           JUNCTION     0.40     0.52     8.39     0  03:01        0.52
  WS02005193           JUNCTION     0.44     0.56     8.38     0  03:01        0.56
  WS02005196           JUNCTION     0.41     0.53     8.38     0  03:01        0.53
  WS02006109           JUNCTION     1.54     1.77     8.39     0  03:01        1.77
  WS02006110           JUNCTION     1.56     1.79     8.39     0  03:01        1.79
  WS02006111           JUNCTION     1.57     1.79     8.37     0  03:00        1.79
  WS02006112           JUNCTION     2.02     2.24     8.36     0  03:01        2.24
  WS02006113           JUNCTION     1.56     1.79     8.38     0  03:00        1.79
  WS02006115           JUNCTION     2.03     2.26     8.36     0  03:01        2.26
  WS02006116           JUNCTION     2.09     2.31     8.35     0  03:01        2.31
  WS02006183           JUNCTION     0.00     0.00     0.00     0  00:00        0.00
  WS02006228           JUNCTION     1.51     1.75     8.40     0  03:01        1.74
  WS02006229           JUNCTION     1.47     1.71     8.40     0  03:01        1.70
  WS02006230           JUNCTION     1.42     1.65     8.40     0  03:01        1.64
  WS02006231           JUNCTION     1.27     1.49     8.39     0  03:00        1.49
  WS02006232           JUNCTION     1.15     1.36     8.39     0  03:00        1.36
  WS02006234           JUNCTION     1.03     1.23     8.39     0  03:00        1.23
  WS02006235           JUNCTION     1.03     1.22     8.39     0  03:00        1.22
  WS02006238           JUNCTION     1.02     1.21     8.39     0  03:00        1.21
  WS02006239           JUNCTION     0.99     1.18     8.39     0  03:00        1.17
  WS02006242           JUNCTION     0.91     1.08     8.38     0  03:00        1.08
  WS02006240           JUNCTION     0.91     1.09     8.38     0  03:00        1.09
  WS02006243           JUNCTION     0.79     0.95     8.37     0  03:00        0.95
  WS02006245           JUNCTION     0.73     0.88     8.37     0  03:00        0.88
  WS02006247           JUNCTION     0.71     0.86     8.37     0  03:00        0.86
  WS02006248           JUNCTION     0.64     0.77     8.36     0  03:01        0.77
  WS02006249           JUNCTION     0.63     0.76     8.36     0  03:01        0.76
  WS02006251           JUNCTION     0.57     0.70     8.37     0  03:01        0.70
  WS02006253           JUNCTION     0.45     0.57     8.37     0  03:01        0.57
  WS02618401           JUNCTION     0.00     0.00     0.00     0  00:00        0.00
  WSA1649              JUNCTION     0.00     0.00     0.00     0  00:00        0.00
  outfall-5            OUTFALL      0.10     0.17     7.84     0  03:01        0.17
  outfall-14           OUTFALL      0.09     0.15     7.81     0  03:01        0.15
  outfall-16           OUTFALL      0.00     0.00     8.39     0  00:00        0.00
  CC-storage           STORAGE      5.32     5.63     8.81     0  01:36        5.63
  
  
  *******************
  Node Inflow Summary
  *******************
  
  -------------------------------------------------------------------------------------------------
                                  Maximum  Maximum                  Lateral       Total        Flow
                                  Lateral    Total  Time of Max      Inflow      Inflow     Balance
                                   Inflow   Inflow   Occurrence      Volume      Volume       Error
  Node                 Type           MLD      MLD  days hr:min    10^6 ltr    10^6 ltr     Percent
  -------------------------------------------------------------------------------------------------
  WS01000070           JUNCTION      0.00     0.00     0  00:00           0           0       0.000 ltr
  WS01000323           JUNCTION      0.00     0.00     0  00:00           0           0       0.000 ltr
  WS01000533           JUNCTION      0.00     0.00     0  00:00           0           0       0.000 ltr
  WS01005172           JUNCTION      0.00     0.00     0  00:00           0           0       0.000 ltr
  WS01005181           JUNCTION      0.00     0.00     0  00:00           0           0       0.000 ltr
  WS01009841           JUNCTION      0.00     0.00     0  00:00           0           0       0.000 ltr
  WS02000078           JUNCTION      0.00     0.00     0  00:00           0           0       0.000 ltr
  WS02000112           JUNCTION      0.00     0.00     0  00:00           0           0       0.000 ltr
  WS02000136           JUNCTION      0.00     0.00     0  00:00           0           0       0.000 ltr
  WS02004053           JUNCTION      0.00     0.00     0  00:00           0           0       0.000 ltr
  WS02004401           JUNCTION      0.05    22.86     0  03:01      0.0086       0.953       3.055
  WS02005192           JUNCTION      9.26     9.26     0  03:01       0.364       0.364       0.687
  WS02005193           JUNCTION      0.09     9.38     0  03:01       0.014       0.391       1.850
  WS02005196           JUNCTION      0.12     9.34     0  03:01      0.0183        0.38       1.729
  WS02006109           JUNCTION      0.08    13.02     0  03:01      0.0129       0.711       3.531
  WS02006110           JUNCTION      0.08    13.10     0  03:01      0.0126       0.701       3.639
  WS02006111           JUNCTION      0.24    22.38     0  03:01      0.0352       0.999       2.117
  WS02006112           JUNCTION      0.18    22.53     0  03:01      0.0263           1       3.375
  WS02006113           JUNCTION      9.46    22.18     0  03:01       0.379        1.02       2.374
  WS02006115           JUNCTION      0.08    22.61     0  03:01      0.0129       0.986       3.981
  WS02006116           JUNCTION      0.24    22.80     0  03:01      0.0347       0.987       3.654
  WS02006183           JUNCTION      0.00     0.00     0  00:00           0           0       0.000 ltr
  WS02006228           JUNCTION     14.20    14.20     0  03:04       0.686       0.842       2.200
  WS02006229           JUNCTION      0.13     4.90     0  01:52      0.0193       0.307       5.521
  WS02006230           JUNCTION      0.07     5.00     0  01:52      0.0111       0.318       8.704
  WS02006231           JUNCTION      0.13     4.89     0  01:52      0.0197       0.325       4.871
  WS02006232           JUNCTION      6.72     8.33     0  03:01       0.261       0.563       2.808
  WS02006234           JUNCTION      0.14     8.45     0  03:01      0.0208       0.555       2.544
  WS02006235           JUNCTION      0.14     8.57     0  03:01      0.0215       0.552       1.476
  WS02006238           JUNCTION      0.15     8.69     0  03:01      0.0226       0.552       1.875
  WS02006239           JUNCTION      0.11     8.79     0  03:01      0.0167       0.551       2.846
  WS02006242           JUNCTION      0.08     8.92     0  03:01      0.0124       0.552       3.442
  WS02006240           JUNCTION      0.06     8.85     0  03:01     0.00952       0.548       3.083
  WS02006243           JUNCTION      0.17     9.07     0  03:01      0.0259       0.559       3.169
  WS02006245           JUNCTION      0.07     9.13     0  03:01      0.0109       0.549       2.461
  WS02006247           JUNCTION      6.35    15.41     0  03:01       0.292       0.807       1.426
  WS02006248           JUNCTION      0.12    28.22     0  03:01      0.0185        1.23       0.863
  WS02006249           JUNCTION      0.19    12.84     0  03:01      0.0275       0.558       2.643
  WS02006251           JUNCTION      3.16    12.61     0  03:01       0.127       0.534       2.747
  WS02006253           JUNCTION      0.11     9.52     0  03:01      0.0166       0.406       1.808
  WS02618401           JUNCTION      0.00     0.00     0  00:00           0           0       0.000 ltr
  WSA1649              JUNCTION      0.00     0.00     0  00:00           0           0       0.000 ltr
  outfall-5            OUTFALL       0.00    28.23     0  03:01           0        1.12       0.000
  outfall-14           OUTFALL       0.00    22.85     0  03:01           0       0.918       0.000
  outfall-16           OUTFALL       0.00     0.00     0  00:00           0           0       0.000 ltr
  CC-storage           STORAGE      27.67    27.67     0  03:01        1.32        1.32       0.011
  
  
  **********************
  Node Surcharge Summary
  **********************
  
  Surcharging occurs when water rises above the top of the highest conduit.
  ---------------------------------------------------------------------
                                               Max. Height   Min. Depth
                                   Hours       Above Crown    Below Rim
  Node                 Type      Surcharged         Meters       Meters
  ---------------------------------------------------------------------
  WS01000070           JUNCTION        3.83          0.000        0.000
  WS01000323           JUNCTION        3.83          0.000        0.000
  WS01000533           JUNCTION        3.83          0.000        2.147
  WS01005172           JUNCTION        3.83          0.000        0.000
  WS01005181           JUNCTION        3.83          0.000        0.000
  WS01009841           JUNCTION        3.83          0.000        0.000
  WS02000078           JUNCTION        3.83          0.000        0.000
  WS02000112           JUNCTION        3.83          0.000        0.000
  WS02000136           JUNCTION        3.83          0.000        0.000
  WS02004053           JUNCTION        3.83          0.000        0.000
  WS02006109           JUNCTION        2.20          0.971        0.867
  WS02006110           JUNCTION        2.21          0.987        0.858
  WS02006111           JUNCTION        2.21          0.991        0.886
  WS02006112           JUNCTION        2.43          1.242        0.441
  WS02006113           JUNCTION        2.21          0.993        0.940
  WS02006115           JUNCTION        2.45          1.257        1.042
  WS02006116           JUNCTION        2.53          1.314        1.036
  WS02006183           JUNCTION        3.83          0.000        0.000
  WS02006228           JUNCTION        2.19          0.945        1.286
  WS02006229           JUNCTION        2.16          0.905        1.549
  WS02006231           JUNCTION        2.10          0.794        0.749
  WS02006232           JUNCTION        2.03          0.664        0.825
  WS02006234           JUNCTION        1.96          0.532        0.725
  WS02006235           JUNCTION        1.96          0.520        0.774
  WS02006238           JUNCTION        1.95          0.509        0.925
  WS02006239           JUNCTION        1.94          0.475        0.854
  WS02006242           JUNCTION        1.90          0.378        0.471
  WS02006240           JUNCTION        1.90          0.392        1.011
  WS02006243           JUNCTION        1.84          0.253        0.527
  WS02006245           JUNCTION        1.82          0.179        0.676
  WS02006247           JUNCTION        1.81          0.156        0.604
  WS02006249           JUNCTION        1.09          0.063        0.325
  WS02006251           JUNCTION        0.02          0.002        1.508
  WS02618401           JUNCTION        3.83          0.000        0.000
  WSA1649              JUNCTION        3.83          0.000        0.000
  
  
  *********************
  Node Flooding Summary
  *********************
  
  Flooding refers to all water that overflows a node, whether it ponds or not.
  --------------------------------------------------------------------------
                                                             Total   Maximum
                                 Maximum   Time of Max       Flood    Ponded
                        Hours       Rate    Occurrence      Volume     Depth
  Node                 Flooded       MLD   days hr:min    10^6 ltr    Meters
  --------------------------------------------------------------------------
  CC-storage              2.23     27.67      0  03:01       1.166     0.000
  
  
  **********************
  Storage Volume Summary
  **********************
  
  --------------------------------------------------------------------------------------------------
                         Average     Avg  Evap Exfil       Maximum     Max    Time of Max    Maximum
                          Volume    Pcnt  Pcnt  Pcnt        Volume    Pcnt     Occurrence    Outflow
  Storage Unit           1000 m3    Full  Loss  Loss       1000 m3    Full    days hr:min        MLD
  --------------------------------------------------------------------------------------------------
  CC-storage               0.150      94     0     0         0.159     100       0  01:36       0.00
  
  
  ***********************
  Outfall Loading Summary
  ***********************
  
  ---------------------------------------------------------------------------------------------------------------------------------
                         Flow       Avg       Max       Total         Total         Total         Total         Total         Total
                         Freq      Flow      Flow      Volume           COD         NH3-N            TN            TP            SS
  Outfall Node           Pcnt       MLD       MLD    10^6 ltr            kg            kg            kg            kg            kg
  ---------------------------------------------------------------------------------------------------------------------------------
  outfall-5             86.56     15.30     28.23       1.116       192.363         0.000         0.000         0.000         0.000
  outfall-14            86.54     12.62     22.85       0.918       154.533         0.000         0.000         0.000         0.000
  outfall-16             0.00      0.00      0.00       0.000         0.000         0.000         0.000         0.000         0.000
  ---------------------------------------------------------------------------------------------------------------------------------
  System                57.70     27.92     51.05       2.034       346.896         0.000         0.000         0.000         0.000
  
  
  ********************
  Link Flow Summary
  ********************
  
  -----------------------------------------------------------------------------
                                 Maximum  Time of Max   Maximum    Max/    Max/
                                  |Flow|   Occurrence   |Veloc|    Full    Full
  Link                 Type          MLD  days hr:min     m/sec    Flow   Depth
  -----------------------------------------------------------------------------
  WSL2038              CONDUIT      9.24     0  03:01      0.54    0.46    0.87
  WSL2039              CONDUIT      9.42     0  03:01      0.82    0.48    0.94
  WSL2041              CONDUIT      9.29     0  03:01      0.61    0.46    0.91
  WSL2294              CONDUIT     13.02     0  03:01      0.43    0.44    1.00
  WSL2295              CONDUIT     13.09     0  03:01      0.50    0.59    1.00
  WSL2296              CONDUIT     22.38     0  03:01      0.63    0.13    1.00
  WSL2297              CONDUIT     22.53     0  03:01      0.34    0.43    1.00
  WSL2298              CONDUIT     22.19     0  03:01      0.87    1.02    1.00
  WSL2301              CONDUIT     22.61     0  03:01      0.33    0.21    1.00
  WSL2302              CONDUIT     22.81     0  03:01      0.34    0.28    1.00
  WSL2441              CONDUIT     12.94     0  03:01      0.44    0.33    1.00
  WSL2442              CONDUIT      4.92     0  01:52      0.63    0.13    1.00
  WSL2443              CONDUIT      4.76     0  01:52      0.73    0.07    1.00
  WSL2444              CONDUIT      4.88     0  01:52      0.90    0.08    1.00
  WSL2446              CONDUIT      8.33     0  03:01      0.85    0.14    1.00
  WSL2447              CONDUIT      8.45     0  03:01      0.75    0.43    1.00
  WSL2448              CONDUIT      8.57     0  03:01      0.61    0.24    1.00
  WSL2449              CONDUIT      8.69     0  03:01      0.59    0.30    1.00
  WSL2450              CONDUIT      8.79     0  03:01      0.68    0.18    1.00
  WSL2451              CONDUIT      8.85     0  03:01      0.65    0.58    1.00
  WSL2452              CONDUIT      8.92     0  03:01      0.67    0.17    1.00
  WSL2454              CONDUIT      9.07     0  03:01      0.83    0.21    1.00
  WSL2478              CONDUIT      9.13     0  03:01      0.71    0.32    1.00
  WSL2479              CONDUIT     15.41     0  03:01      0.63    0.29    1.00
  WSL2480              CONDUIT     12.86     0  03:01      0.70    0.59    1.00
  WSL2482              CONDUIT     12.69     0  03:01      0.61    0.33    1.00
  WSL2484              CONDUIT      9.61     0  03:01      0.70    0.14    0.91
  WSL2493              CONDUIT      4.77     0  01:52      0.51    0.08    1.00
  8                    CONDUIT     28.23     0  03:01      6.46    0.37    0.42
  19                   CONDUIT      0.00     0  00:00      0.00    0.00    0.00
  17                   CONDUIT     22.85     0  03:01      6.18    0.30    0.37
  CC-Pump-1            PUMP         0.00     0  00:00              0.00
  CC-Pump-2            PUMP         0.00     0  00:00              0.00
  
  
  ***************************
  Flow Classification Summary
  ***************************
  
  -------------------------------------------------------------------------------------
                      Adjusted    ---------- Fraction of Time in Flow Class ---------- 
                       /Actual         Up    Down  Sub   Sup   Up    Down  Norm  Inlet 
  Conduit               Length    Dry  Dry   Dry   Crit  Crit  Crit  Crit  Ltd   Ctrl  
  -------------------------------------------------------------------------------------
  WSL2038                 1.00   0.00  0.00  0.00  1.00  0.00  0.00  0.00  0.01  0.00
  WSL2039                 1.00   0.00  0.00  0.00  1.00  0.00  0.00  0.00  0.00  0.00
  WSL2041                 1.00   0.00  0.00  0.00  1.00  0.00  0.00  0.00  0.31  0.00
  WSL2294                 1.00   0.00  0.00  0.00  1.00  0.00  0.00  0.00  0.00  0.00
  WSL2295                 1.00   0.00  0.00  0.00  1.00  0.00  0.00  0.00  0.00  0.00
  WSL2296                 1.00   0.00  0.00  0.00  1.00  0.00  0.00  0.00  0.17  0.00
  WSL2297                 1.00   0.00  0.00  0.00  1.00  0.00  0.00  0.00  0.00  0.00
  WSL2298                 1.00   0.00  0.00  0.00  0.98  0.02  0.00  0.00  0.00  0.00
  WSL2301                 1.00   0.00  0.00  0.00  1.00  0.00  0.00  0.00  0.04  0.00
  WSL2302                 1.00   0.00  0.00  0.00  1.00  0.00  0.00  0.00  0.01  0.00
  WSL2441                 1.00   0.00  0.00  0.00  1.00  0.00  0.00  0.00  0.00  0.00
  WSL2442                 1.00   0.00  0.00  0.00  1.00  0.00  0.00  0.00  0.17  0.00
  WSL2443                 1.00   0.00  0.00  0.00  1.00  0.00  0.00  0.00  0.31  0.00
  WSL2444                 1.00   0.00  0.00  0.00  0.93  0.07  0.00  0.00  0.23  0.00
  WSL2446                 1.00   0.00  0.00  0.00  0.93  0.07  0.00  0.00  0.03  0.00
  WSL2447                 1.00   0.00  0.00  0.00  1.00  0.00  0.00  0.00  0.00  0.00
  WSL2448                 1.00   0.00  0.00  0.00  1.00  0.00  0.00  0.00  0.00  0.00
  WSL2449                 1.00   0.00  0.00  0.00  1.00  0.00  0.00  0.00  0.03  0.00
  WSL2450                 1.00   0.00  0.00  0.00  1.00  0.00  0.00  0.00  0.43  0.00
  WSL2451                 1.00   0.00  0.00  0.00  1.00  0.00  0.00  0.00  0.00  0.00
  WSL2452                 1.00   0.00  0.00  0.00  1.00  0.00  0.00  0.00  0.43  0.00
  WSL2454                 1.00   0.00  0.00  0.00  1.00  0.00  0.00  0.00  0.02  0.00
  WSL2478                 1.00   0.00  0.00  0.00  1.00  0.00  0.00  0.00  0.00  0.00
  WSL2479                 1.00   0.00  0.00  0.00  1.00  0.00  0.00  0.00  0.47  0.00
  WSL2480                 1.00   0.00  0.00  0.00  1.00  0.00  0.00  0.00  0.00  0.00
  WSL2482                 1.00   0.00  0.00  0.00  1.00  0.00  0.00  0.00  0.48  0.00
  WSL2484                 1.00   0.00  0.00  0.00  1.00  0.00  0.00  0.00  0.48  0.00
  WSL2493                 1.00   0.00  0.00  0.00  1.00  0.00  0.00  0.00  0.05  0.00
  8                       1.00   0.13  0.00  0.00  0.00  0.87  0.00  0.00  0.02  0.00
  19                      1.00   1.00  0.00  0.00  0.00  0.00  0.00  0.00  0.00  0.00
  17                      1.00   0.13  0.00  0.00  0.00  0.87  0.00  0.00  0.00  0.00
  
  
  *************************
  Conduit Surcharge Summary
  *************************
  
  ----------------------------------------------------------------------------
                                                           Hours        Hours 
                         --------- Hours Full --------   Above Full   Capacity
  Conduit                Both Ends  Upstream  Dnstream   Normal Flow   Limited
  ----------------------------------------------------------------------------
  WSL2294                     2.20      2.20      2.21      0.01         0.01
  WSL2295                     2.21      2.21      2.21      0.01         0.01
  WSL2296                     2.21      2.21      2.74      0.01         0.01
  WSL2297                     2.43      2.43      2.45      0.01         0.01
  WSL2298                     2.21      2.21      2.21      0.03         0.05
  WSL2301                     2.45      2.45      2.53      0.01         0.01
  WSL2302                     2.53      2.53      2.60      0.01         0.01
  WSL2441                     2.19      2.19      2.20      0.01         0.01
  WSL2442                     2.19      2.19      2.21      0.01         0.01
  WSL2443                     2.10      2.10      2.19      0.01         0.01
  WSL2444                     2.03      2.03      2.10      0.01         0.01
  WSL2446                     1.96      1.96      2.03      0.01         0.01
  WSL2447                     1.96      1.96      1.96      0.01         0.01
  WSL2448                     1.95      1.95      1.96      0.01         0.01
  WSL2449                     1.94      1.94      1.95      0.01         0.01
  WSL2450                     1.90      1.90      1.94      0.01         0.01
  WSL2451                     1.90      1.90      1.90      0.01         0.01
  WSL2452                     1.84      1.84      1.90      0.01         0.01
  WSL2454                     1.82      1.82      1.84      0.01         0.01
  WSL2478                     1.81      1.81      1.82      0.01         0.01
  WSL2479                     1.48      1.48      1.81      0.01         0.01
  WSL2480                     1.09      1.09      1.48      0.01         0.01
  WSL2482                     0.02      0.02      1.09      0.01         0.01
  WSL2484                     0.01      0.01      0.02      0.01         0.01
  WSL2493                     2.16      2.16      2.19      0.01         0.01
  
  
  ***************
  Pumping Summary
  ***************
  
  ---------------------------------------------------------------------------------------------------------
                                                  Min       Avg       Max     Total     Power    % Time Off
                        Percent   Number of      Flow      Flow      Flow    Volume     Usage    Pump Curve
  Pump                 Utilized   Start-Ups       MLD       MLD       MLD  10^6 ltr     Kw-hr    Low   High
  ---------------------------------------------------------------------------------------------------------
  CC-Pump-1                0.00           0      0.00      0.00      0.00     0.000      0.00    0.0    0.0
  CC-Pump-2                0.00           0      0.00      0.00      0.00     0.000      0.00    0.0    0.0
  
  
  ***************************
  Link Pollutant Load Summary
  ***************************
  
  ------------------------------------------------------------------------------------------
                                 COD         NH3-N            TN            TP            SS
  Link                            kg            kg            kg            kg            kg
  ------------------------------------------------------------------------------------------
  WSL2038                     70.763         0.000         0.000         0.000         0.000
  WSL2039                     75.767         0.000         0.000         0.000         0.000
  WSL2041                     73.415         0.000         0.000         0.000         0.000
  WSL2294                    188.751         0.000         0.000         0.000         0.000
  WSL2295                    178.878         0.000         0.000         0.000         0.000
  WSL2296                    175.601         0.000         0.000         0.000         0.000
  WSL2297                    169.600         0.000         0.000         0.000         0.000
  WSL2298                    174.130         0.000         0.000         0.000         0.000
  WSL2301                    164.015         0.000         0.000         0.000         0.000
  WSL2302                    159.928         0.000         0.000         0.000         0.000
  WSL2441                    197.727         0.000         0.000         0.000         0.000
  WSL2442                     70.365         0.000         0.000         0.000         0.000
  WSL2443                     66.453         0.000         0.000         0.000         0.000
  WSL2444                     63.998         0.000         0.000         0.000         0.000
  WSL2446                     62.497         0.000         0.000         0.000         0.000
  WSL2447                     61.409         0.000         0.000         0.000         0.000
  WSL2448                     61.129         0.000         0.000         0.000         0.000
  WSL2449                     59.786         0.000         0.000         0.000         0.000
  WSL2450                     58.626         0.000         0.000         0.000         0.000
  WSL2451                     57.436         0.000         0.000         0.000         0.000
  WSL2452                     56.786         0.000         0.000         0.000         0.000
  WSL2454                     55.902         0.000         0.000         0.000         0.000
  WSL2478                     55.390         0.000         0.000         0.000         0.000
  WSL2479                     99.899         0.000         0.000         0.000         0.000
  WSL2480                    118.924         0.000         0.000         0.000         0.000
  WSL2482                    115.286         0.000         0.000         0.000         0.000
  WSL2484                     78.816         0.000         0.000         0.000         0.000
  WSL2493                     72.145         0.000         0.000         0.000         0.000
  8                          192.363         0.000         0.000         0.000         0.000
  19                           0.000         0.000         0.000         0.000         0.000
  17                         154.533         0.000         0.000         0.000         0.000
  CC-Pump-1                    0.000         0.000         0.000         0.000         0.000
  CC-Pump-2                    0.000         0.000         0.000         0.000         0.000
  

  Analysis begun on:  Mon Aug 19 10:42:03 2019
  Analysis ended on:  Mon Aug 19 10:42:03 2019
  Total elapsed time: < 1 sec