
  EPA STORM WATER MANAGEMENT MODEL - VERSION 5.1 (Build 5.3.0.dev0)
  --------------------------------------------------------------

  
  *********************************************************
  NOTE: The summary statistics displayed in this report are
  based on results found at every computational time step,  
  not just on results from each reporting time step.
  *********************************************************
  
  ****************
  Analysis Options
  ****************
  Flow Units ............... MLD
  Process Models:
    Rainfall/Runoff ........ YES
    RDII ................... NO
    Snowmelt ............... NO
    Groundwater ............ NO
    Flow Routing ........... YES
    Ponding Allowed ........ NO
    Water Quality .......... YES
  Infiltration Method ...... GREEN_AMPT
  Flow Routing Method ...... DYNWAVE
  Surcharge Method ......... EXTRAN
  Starting Date ............ 08/28/2015 08:00:00
  Ending Date .............. 08/28/2015 12:00:00
  Antecedent Dry Days ...... 4.0
  Report Time Step ......... 00:01:00
  Wet Time Step ............ 00:01:00
  Dry Time Step ............ 00:01:00
  Routing Time Step ........ 5.00 sec
  Variable Time Step ....... YES
  Maximum Trials ........... 8
  Number of Threads ........ 1
  Head Tolerance ........... 0.001500 m
  
  
  **************************        Volume         Depth
  Runoff Quantity Continuity     hectare-m            mm
  **************************     ---------       -------
  Total Precipitation ......         1.035        16.729
  Evaporation Loss .........         0.000         0.000
  Infiltration Loss ........         0.516         8.336
  Surface Runoff ...........         0.241         3.894
  Final Storage ............         0.278         4.500
  Continuity Error (%) .....        -0.005
  
  
  **************************           COD         NH3-N            TN            TP            SS
  Runoff Quality Continuity             kg            kg            kg            kg            kg
  **************************    ----------    ----------    ----------    ----------    ----------
  Initial Buildup ..........      2504.640         0.000         0.000         0.000         0.000
  Surface Buildup ..........        19.555         0.000         0.000         0.000         0.000
  Wet Deposition ...........         0.000         0.000         0.000         0.000         0.000
  Sweeping Removal .........         0.000         0.000         0.000         0.000         0.000
  Infiltration Loss ........       109.592         0.000         0.000         0.000         0.000
  BMP Removal ..............         0.000         0.000         0.000         0.000         0.000
  Surface Runoff ...........       367.494         0.000         0.000         0.000         0.000
  Remaining Buildup ........      2046.211         0.000         0.000         0.000         0.000
  Continuity Error (%) .....         0.036         0.000         0.000         0.000         0.000
  
  
  **************************        Volume        Volume
  Flow Routing Continuity        hectare-m      10^6 ltr
  **************************     ---------     ---------
  Dry Weather Inflow .......         0.000         0.000
  Wet Weather Inflow .......         0.241         2.406
  Groundwater Inflow .......         0.000         0.000
  RDII Inflow ..............         0.000         0.000
  External Inflow ..........         0.085         0.854
  External Outflow .........         0.387         3.873
  Flooding Loss ............         0.000         0.000
  Evaporation Loss .........         0.000         0.000
  Exfiltration Loss ........         0.000         0.000
  Initial Stored Volume ....         0.000         0.000
  Final Stored Volume ......         0.046         0.462
  Continuity Error (%) .....       -33.004
  
  
  **************************           COD         NH3-N            TN            TP            SS
  Quality Routing Continuity            kg            kg            kg            kg            kg
  **************************    ----------    ----------    ----------    ----------    ----------
  Dry Weather Inflow .......         0.000         0.000         0.000         0.000         0.000
  Wet Weather Inflow .......       367.086         0.000         0.000         0.000         0.000
  Groundwater Inflow .......         0.000         0.000         0.000         0.000         0.000
  RDII Inflow ..............         0.000         0.000         0.000         0.000         0.000
  External Inflow ..........       142.556         0.000         0.000         0.000         0.000
  External Outflow .........       282.103         0.000         0.000         0.000         0.000
  Flooding Loss ............         0.000         0.000         0.000         0.000         0.000
  Exfiltration Loss ........         0.000         0.000         0.000         0.000         0.000
  Mass Reacted .............         0.000         0.000         0.000         0.000         0.000
  Initial Stored Mass ......         0.000         0.000         0.000         0.000         0.000
  Final Stored Mass ........        69.734         0.000         0.000         0.000         0.000
  Continuity Error (%) .....        30.964         0.000         0.000         0.000         0.000
  
  
  *************************
  Highest Continuity Errors
  *************************
  Node WS02006242 (3.56%)
  Node WS02006230 (3.39%)
  Node WS02006243 (3.32%)
  Node WS02006240 (3.20%)
  Node WS02006239 (2.95%)
  
  
  ***************************
  Time-Step Critical Elements
  ***************************
  Link 8 (92.21%)
  Link WSL2448 (6.22%)
  
  
  ********************************
  Highest Flow Instability Indexes
  ********************************
  Link WSL2302 (2)
  Link WSL2301 (2)
  Link WSL2297 (1)
  Link WSL2296 (1)
  Link WSL2493 (1)
  
  
  *************************
  Routing Time Step Summary
  *************************
  Minimum Time Step           :     0.47 sec
  Average Time Step           :     0.78 sec
  Maximum Time Step           :     5.00 sec
  Percent in Steady State     :    -0.00
  Average Iterations per Step :     2.06
  Percent Not Converging      :     0.32
  
  
  ***************************
  Subcatchment Runoff Summary
  ***************************
  
  ------------------------------------------------------------------------------------------------------------------------------
                            Total      Total      Total      Total     Imperv       Perv      Total       Total     Peak  Runoff
                           Precip      Runon       Evap      Infil     Runoff     Runoff     Runoff      Runoff   Runoff   Coeff
  Subcatchment                 mm         mm         mm         mm         mm         mm         mm    10^6 ltr      MLD
  ------------------------------------------------------------------------------------------------------------------------------
  1                         16.73      19.99       0.00       9.91       8.81       9.10      17.91        0.22     2.65   0.488
  2                         16.73       0.00       0.00       7.90       4.03       1.61       5.64        0.19     3.39   0.337
  3                         16.73       0.00       0.00       7.95       3.99       1.37       5.36        0.27     4.83   0.320
  35                        16.73       0.00       0.00       7.88       4.04       1.68       5.72        0.17     3.09   0.342
  36                        16.73      11.38       0.00       9.59       6.59       3.53      10.11        0.60     8.38   0.360
  40                        16.73       3.00       0.00       8.40       4.72       2.14       6.86        0.27     4.41   0.347
  41                        16.73       0.00       0.00       7.81       4.07       1.99       6.06        0.12     2.10   0.362
  42                        16.73       0.00       0.00       7.84       4.06       1.87       5.93        0.14     2.42   0.355
  43                        16.73       0.00       0.00       7.45       4.14       3.39       7.53        0.03     0.49   0.450
  44                        16.73     168.09       0.00      15.33      45.35     101.30     146.65        0.54     7.11   0.794
  45                        16.73       0.00       0.00       7.70       4.11       2.48       6.58        0.07     1.21   0.393
  46                        16.73       9.52       0.00       9.13       6.30       4.52      10.83        0.23     3.30   0.412
  47                        16.73       0.00       0.00       7.71       4.10       2.42       6.52        0.07     1.29   0.390
  48                        16.73       4.57       0.00       8.44       5.17       3.45       8.62        0.14     2.15   0.405
  55                        16.73       6.83       0.00       8.55       5.75       5.08      10.84        0.09     1.35   0.460
  56                        16.73      10.47       0.00       9.23       6.53       4.81      11.33        0.24     3.38   0.417
  57                        16.73       0.00       0.00       7.95       3.99       1.38       5.37        0.27     4.75   0.321
  59                        16.73       0.00       0.00       7.65       4.11       2.65       6.76        0.06     1.01   0.404
  60                        16.73      14.87       0.00       9.20       7.73       9.43      17.16        0.09     1.24   0.543
  61                        16.73       0.00       0.00       8.07       3.80       0.80       4.60        0.83    13.87   0.275
  64                        16.73       0.00       0.00       7.73       4.10       2.35       6.45        0.08     1.38   0.386
  
  
  ****************************
  Subcatchment Washoff Summary
  ****************************
  
  ------------------------------------------------------------------------------------------
                                 COD         NH3-N            TN            TP            SS
  Subcatchment                    kg            kg            kg            kg            kg
  ------------------------------------------------------------------------------------------
  1                           34.928         0.000         0.000         0.000         0.000
  2                            0.000         0.000         0.000         0.000         0.000
  3                            0.000         0.000         0.000         0.000         0.000
  35                          26.754         0.000         0.000         0.000         0.000
  36                         171.054         0.000         0.000         0.000         0.000
  40                          51.979         0.000         0.000         0.000         0.000
  41                          18.867         0.000         0.000         0.000         0.000
  42                          21.412         0.000         0.000         0.000         0.000
  43                           5.066         0.000         0.000         0.000         0.000
  44                         162.599         0.000         0.000         0.000         0.000
  45                          11.506         0.000         0.000         0.000         0.000
  46                          65.522         0.000         0.000         0.000         0.000
  47                          12.197         0.000         0.000         0.000         0.000
  48                          31.086         0.000         0.000         0.000         0.000
  55                          23.579         0.000         0.000         0.000         0.000
  56                          71.215         0.000         0.000         0.000         0.000
  57                          39.606         0.000         0.000         0.000         0.000
  59                           9.815         0.000         0.000         0.000         0.000
  60                          26.778         0.000         0.000         0.000         0.000
  61                         106.782         0.000         0.000         0.000         0.000
  64                          12.963         0.000         0.000         0.000         0.000
  ------------------------------------------------------------------------------------------
  System                     903.708         0.000         0.000         0.000         0.000
  
  
  ******************
  Node Depth Summary
  ******************
  
  ---------------------------------------------------------------------------------
                                 Average  Maximum  Maximum  Time of Max    Reported
                                   Depth    Depth      HGL   Occurrence   Max Depth
  Node                 Type       Meters   Meters   Meters  days hr:min      Meters
  ---------------------------------------------------------------------------------
  WS01000070           JUNCTION     0.00     0.00     0.00     0  00:00        0.00
  WS01000323           JUNCTION     0.00     0.00     0.00     0  00:00        0.00
  WS01000533           JUNCTION     0.00     0.00     6.86     0  00:00        0.00
  WS01005172           JUNCTION     0.00     0.00     0.00     0  00:00        0.00
  WS01005181           JUNCTION     0.00     0.00     0.00     0  00:00        0.00
  WS01009841           JUNCTION     0.00     0.00     0.00     0  00:00        0.00
  WS02000078           JUNCTION     0.00     0.00     0.00     0  00:00        0.00
  WS02000112           JUNCTION     0.00     0.00     0.00     0  00:00        0.00
  WS02000136           JUNCTION     0.00     0.00     0.00     0  00:00        0.00
  WS02004053           JUNCTION     0.00     0.00     0.00     0  00:00        0.00
  WS02004401           JUNCTION     2.21     2.34     8.34     0  02:00        2.34
  WS02005192           JUNCTION     0.49     0.67     8.54     0  02:00        0.67
  WS02005193           JUNCTION     0.54     0.71     8.53     0  02:00        0.71
  WS02005196           JUNCTION     0.51     0.68     8.53     0  02:01        0.68
  WS02006109           JUNCTION     1.62     1.76     8.38     0  02:00        1.75
  WS02006110           JUNCTION     1.64     1.78     8.38     0  02:00        1.77
  WS02006111           JUNCTION     1.65     1.78     8.36     0  02:00        1.77
  WS02006112           JUNCTION     2.10     2.24     8.36     0  02:00        2.23
  WS02006113           JUNCTION     1.65     1.78     8.37     0  02:00        1.77
  WS02006115           JUNCTION     2.12     2.25     8.35     0  02:00        2.24
  WS02006116           JUNCTION     2.18     2.31     8.35     0  02:00        2.30
  WS02006183           JUNCTION     0.00     0.00     0.00     0  00:00        0.00
  WS02006228           JUNCTION     1.59     1.73     8.38     0  02:00        1.73
  WS02006229           JUNCTION     1.56     1.69     8.38     0  02:00        1.69
  WS02006230           JUNCTION     1.50     1.63     8.38     0  02:01        1.63
  WS02006231           JUNCTION     1.35     1.49     8.39     0  02:00        1.48
  WS02006232           JUNCTION     1.23     1.36     8.39     0  02:00        1.35
  WS02006234           JUNCTION     1.11     1.23     8.39     0  02:00        1.22
  WS02006235           JUNCTION     1.10     1.22     8.39     0  02:00        1.21
  WS02006238           JUNCTION     1.09     1.21     8.39     0  02:00        1.20
  WS02006239           JUNCTION     1.06     1.19     8.40     0  02:00        1.17
  WS02006242           JUNCTION     0.98     1.10     8.40     0  02:00        1.09
  WS02006240           JUNCTION     0.99     1.11     8.40     0  02:00        1.10
  WS02006243           JUNCTION     0.86     0.98     8.40     0  02:00        0.97
  WS02006245           JUNCTION     0.80     0.91     8.40     0  02:00        0.90
  WS02006247           JUNCTION     0.78     0.89     8.40     0  02:00        0.88
  WS02006248           JUNCTION     0.71     0.80     8.39     0  02:00        0.80
  WS02006249           JUNCTION     0.71     0.82     8.42     0  02:00        0.82
  WS02006251           JUNCTION     0.67     0.82     8.49     0  02:00        0.82
  WS02006253           JUNCTION     0.56     0.73     8.53     0  02:00        0.72
  WS02618401           JUNCTION     0.00     0.00     0.00     0  00:00        0.00
  WSA1649              JUNCTION     0.00     0.00     0.00     0  00:00        0.00
  outfall-5            OUTFALL      0.14     0.20     7.86     0  02:00        0.20
  outfall-14           OUTFALL      0.11     0.14     7.80     0  02:00        0.14
  outfall-16           OUTFALL      0.00     0.00     8.39     0  00:00        0.00
  CC-storage           STORAGE      0.00     0.00     3.18     0  00:00        0.00
  
  
  *******************
  Node Inflow Summary
  *******************
  
  -------------------------------------------------------------------------------------------------
                                  Maximum  Maximum                  Lateral       Total        Flow
                                  Lateral    Total  Time of Max      Inflow      Inflow     Balance
                                   Inflow   Inflow   Occurrence      Volume      Volume       Error
  Node                 Type           MLD      MLD  days hr:min    10^6 ltr    10^6 ltr     Percent
  -------------------------------------------------------------------------------------------------
  WS01000070           JUNCTION      0.00     0.00     0  00:00           0           0       0.000 ltr
  WS01000323           JUNCTION      0.00     0.00     0  00:00           0           0       0.000 ltr
  WS01000533           JUNCTION      0.00     0.00     0  00:00           0           0       0.000 ltr
  WS01005172           JUNCTION      0.00     0.00     0  00:00           0           0       0.000 ltr
  WS01005181           JUNCTION      0.00     0.00     0  00:00           0           0       0.000 ltr
  WS01009841           JUNCTION      0.00     0.00     0  00:00           0           0       0.000 ltr
  WS02000078           JUNCTION      0.00     0.00     0  00:00           0           0       0.000 ltr
  WS02000112           JUNCTION      0.00     0.00     0  00:00           0           0       0.000 ltr
  WS02000136           JUNCTION      0.00     0.00     0  00:00           0           0       0.000 ltr
  WS02004053           JUNCTION      0.00     0.00     0  00:00           0           0       0.000 ltr
  WS02004401           JUNCTION      0.05    20.11     0  02:00     0.00897        1.51       1.908
  WS02005192           JUNCTION      4.87     4.87     0  01:56       0.286       0.286       0.889
  WS02005193           JUNCTION      0.09     5.50     0  01:22      0.0146       0.326       2.224
  WS02005196           JUNCTION      0.12     5.06     0  02:00       0.019       0.308       2.158
  WS02006109           JUNCTION      0.08    14.68     0  02:12      0.0135        1.29       1.915
  WS02006110           JUNCTION      0.08    14.76     0  02:12      0.0132        1.27       1.962
  WS02006111           JUNCTION      0.24    19.58     0  02:05      0.0366        1.55       1.346
  WS02006112           JUNCTION      0.18    19.74     0  02:05      0.0273        1.56       2.115
  WS02006113           JUNCTION      5.00    19.37     0  02:05       0.299        1.54       1.555
  WS02006115           JUNCTION      0.08    19.82     0  02:00      0.0134        1.54       2.504
  WS02006116           JUNCTION      0.24    20.06     0  02:00       0.036        1.54       2.264
  WS02006183           JUNCTION      0.00     0.00     0  00:00           0           0       0.000 ltr
  WS02006228           JUNCTION      7.27    14.60     0  02:12        0.57         1.3       1.406
  WS02006229           JUNCTION      0.13     8.70     0  02:00        0.02       0.748       2.199
  WS02006230           JUNCTION      0.07     8.56     0  01:56      0.0116       0.747       3.509
  WS02006231           JUNCTION      0.13     8.49     0  01:56      0.0205       0.743       2.069
  WS02006232           JUNCTION      3.47     8.36     0  01:56       0.204       0.742       2.109
  WS02006234           JUNCTION      0.14     5.74     0  00:11      0.0216       0.555       2.546
  WS02006235           JUNCTION      0.14     5.60     0  00:11      0.0223       0.538       1.482
  WS02006238           JUNCTION      0.15     5.46     0  00:11      0.0235       0.524       1.957
  WS02006239           JUNCTION      0.11     5.34     0  00:10      0.0174       0.515       3.039
  WS02006242           JUNCTION      0.08     5.32     0  01:07      0.0129       0.516       3.693
  WS02006240           JUNCTION      0.06     5.24     0  00:09     0.00992       0.511       3.309
  WS02006243           JUNCTION      0.17     5.86     0  01:10      0.0269       0.518       3.436
  WS02006245           JUNCTION      0.07     6.21     0  01:15      0.0113       0.503       2.691
  WS02006247           JUNCTION      2.79     6.74     0  01:13       0.241       0.545       2.125
  WS02006248           JUNCTION      0.12    38.39     0  02:00      0.0192        2.71       0.389
  WS02006249           JUNCTION      0.19    38.27     0  02:00      0.0286        2.66       0.548
  WS02006251           JUNCTION      1.41    38.08     0  02:00      0.0997        2.64       0.538
  WS02006253           JUNCTION      0.11    36.68     0  02:00      0.0173        2.56       0.277
  WS02618401           JUNCTION      0.00     0.00     0  00:00           0           0       0.000 ltr
  WSA1649              JUNCTION      0.00     0.00     0  00:00           0           0       0.000 ltr
  outfall-5            OUTFALL       0.00    37.11     0  02:00           0         2.4       0.000
  outfall-14           OUTFALL       0.00    20.11     0  02:00           0        1.47       0.000
  outfall-16           OUTFALL       0.00     0.00     0  00:00           0           0       0.000 ltr
  CC-storage           STORAGE      15.78    15.78     0  02:00        1.11        1.11     -50.000
  
  
  **********************
  Node Surcharge Summary
  **********************
  
  Surcharging occurs when water rises above the top of the highest conduit.
  ---------------------------------------------------------------------
                                               Max. Height   Min. Depth
                                   Hours       Above Crown    Below Rim
  Node                 Type      Surcharged         Meters       Meters
  ---------------------------------------------------------------------
  WS01000070           JUNCTION        4.00          0.000        0.000
  WS01000323           JUNCTION        4.00          0.000        0.000
  WS01000533           JUNCTION        4.00          0.000        2.147
  WS01005172           JUNCTION        4.00          0.000        0.000
  WS01005181           JUNCTION        4.00          0.000        0.000
  WS01009841           JUNCTION        4.00          0.000        0.000
  WS02000078           JUNCTION        4.00          0.000        0.000
  WS02000112           JUNCTION        4.00          0.000        0.000
  WS02000136           JUNCTION        4.00          0.000        0.000
  WS02004053           JUNCTION        4.00          0.000        0.000
  WS02005192           JUNCTION        0.50          0.067        2.752
  WS02005193           JUNCTION        0.71          0.109        2.508
  WS02005196           JUNCTION        0.57          0.085        2.621
  WS02006109           JUNCTION        2.97          0.961        0.877
  WS02006110           JUNCTION        2.98          0.977        0.868
  WS02006111           JUNCTION        3.00          0.984        0.893
  WS02006112           JUNCTION        3.20          1.236        0.447
  WS02006113           JUNCTION        2.99          0.983        0.950
  WS02006115           JUNCTION        3.22          1.250        1.049
  WS02006116           JUNCTION        3.28          1.306        1.044
  WS02006183           JUNCTION        4.00          0.000        0.000
  WS02006228           JUNCTION        2.96          0.933        1.298
  WS02006229           JUNCTION        2.93          0.891        1.563
  WS02006231           JUNCTION        2.86          0.785        0.758
  WS02006232           JUNCTION        2.78          0.659        0.830
  WS02006234           JUNCTION        2.72          0.532        0.725
  WS02006235           JUNCTION        2.72          0.524        0.770
  WS02006238           JUNCTION        2.71          0.514        0.920
  WS02006239           JUNCTION        2.70          0.487        0.842
  WS02006242           JUNCTION        2.67          0.401        0.448
  WS02006240           JUNCTION        2.67          0.410        0.993
  WS02006243           JUNCTION        2.63          0.281        0.499
  WS02006245           JUNCTION        2.60          0.208        0.647
  WS02006247           JUNCTION        2.60          0.188        0.572
  WS02006249           JUNCTION        2.23          0.119        0.269
  WS02006251           JUNCTION        1.37          0.123        1.387
  WS02006253           JUNCTION        0.33          0.029        2.425
  WS02618401           JUNCTION        4.00          0.000        0.000
  WSA1649              JUNCTION        4.00          0.000        0.000
  
  
  *********************
  Node Flooding Summary
  *********************
  
  No nodes were flooded.
  
  
  **********************
  Storage Volume Summary
  **********************
  
  --------------------------------------------------------------------------------------------------
                         Average     Avg  Evap Exfil       Maximum     Max    Time of Max    Maximum
                          Volume    Pcnt  Pcnt  Pcnt        Volume    Pcnt     Occurrence    Outflow
  Storage Unit           1000 m3    Full  Loss  Loss       1000 m3    Full    days hr:min        MLD
  --------------------------------------------------------------------------------------------------
  CC-storage               0.000       0     0     0         0.000       0       0  00:00      31.56
  
  
  ***********************
  Outfall Loading Summary
  ***********************
  
  ---------------------------------------------------------------------------------------------------------------------------------
                         Flow       Avg       Max       Total         Total         Total         Total         Total         Total
                         Freq      Flow      Flow      Volume           COD         NH3-N            TN            TP            SS
  Outfall Node           Pcnt       MLD       MLD    10^6 ltr            kg            kg            kg            kg            kg
  ---------------------------------------------------------------------------------------------------------------------------------
  outfall-5             92.51     22.99     37.11       2.404        79.985         0.000         0.000         0.000         0.000
  outfall-14            92.49     13.97     20.11       1.469       202.123         0.000         0.000         0.000         0.000
  outfall-16             0.00      0.00      0.00       0.000         0.000         0.000         0.000         0.000         0.000
  ---------------------------------------------------------------------------------------------------------------------------------
  System                61.67     36.96     57.22       3.873       282.108         0.000         0.000         0.000         0.000
  
  
  ********************
  Link Flow Summary
  ********************
  
  -----------------------------------------------------------------------------
                                 Maximum  Time of Max   Maximum    Max/    Max/
                                  |Flow|   Occurrence   |Veloc|    Full    Full
  Link                 Type          MLD  days hr:min     m/sec    Flow   Depth
  -----------------------------------------------------------------------------
  WSL2038              CONDUIT      4.95     0  02:00      0.30    0.25    1.00
  WSL2039              CONDUIT      5.41     0  01:22      0.45    0.28    1.00
  WSL2041              CONDUIT      5.16     0  02:00      0.27    0.25    1.00
  WSL2294              CONDUIT     14.68     0  02:12      0.65    0.49    1.00
  WSL2295              CONDUIT     14.76     0  02:12      0.72    0.66    1.00
  WSL2296              CONDUIT     19.58     0  02:05      1.08    0.11    1.00
  WSL2297              CONDUIT     19.74     0  02:05      0.57    0.38    1.00
  WSL2298              CONDUIT     19.37     0  02:05      1.20    0.89    1.00
  WSL2301              CONDUIT     19.83     0  02:00      0.38    0.18    1.00
  WSL2302              CONDUIT     20.06     0  02:00      0.30    0.25    1.00
  WSL2441              CONDUIT     14.60     0  02:12      0.72    0.37    1.00
  WSL2442              CONDUIT      8.59     0  02:00      0.89    0.22    1.00
  WSL2443              CONDUIT      8.49     0  01:56      1.02    0.13    1.00
  WSL2444              CONDUIT      8.36     0  01:56      1.18    0.13    1.00
  WSL2446              CONDUIT      5.74     0  00:12      1.14    0.10    1.00
  WSL2447              CONDUIT      5.60     0  00:11      0.91    0.29    1.00
  WSL2448              CONDUIT      5.46     0  00:11      0.76    0.15    1.00
  WSL2449              CONDUIT      5.31     0  00:11      0.71    0.19    1.00
  WSL2450              CONDUIT      5.23     0  00:10      0.84    0.11    1.00
  WSL2451              CONDUIT      5.18     0  00:09      0.76    0.34    1.00
  WSL2452              CONDUIT      5.24     0  01:07      0.86    0.10    1.00
  WSL2454              CONDUIT      5.68     0  01:10      0.95    0.13    1.00
  WSL2478              CONDUIT      6.14     0  01:15      0.86    0.22    1.00
  WSL2479              CONDUIT      6.36     0  01:13      0.85    0.12    1.00
  WSL2480              CONDUIT     38.27     0  02:00      1.15    1.77    1.00
  WSL2482              CONDUIT     38.08     0  02:00      1.15    0.99    1.00
  WSL2484              CONDUIT     36.68     0  02:00      1.35    0.52    1.00
  WSL2493              CONDUIT      8.70     0  02:00      0.78    0.15    1.00
  8                    CONDUIT     37.11     0  02:00      6.94    0.49    0.49
  19                   CONDUIT      0.00     0  00:00      0.00    0.00    0.00
  17                   CONDUIT     20.11     0  02:00      5.97    0.26    0.35
  CC-Pump-1            PUMP        15.78     0  02:00              0.91
  CC-Pump-2            PUMP        15.78     0  02:00              0.91
  
  
  ***************************
  Flow Classification Summary
  ***************************
  
  -------------------------------------------------------------------------------------
                      Adjusted    ---------- Fraction of Time in Flow Class ---------- 
                       /Actual         Up    Down  Sub   Sup   Up    Down  Norm  Inlet 
  Conduit               Length    Dry  Dry   Dry   Crit  Crit  Crit  Crit  Ltd   Ctrl  
  -------------------------------------------------------------------------------------
  WSL2038                 1.00   0.00  0.00  0.00  1.00  0.00  0.00  0.00  0.00  0.00
  WSL2039                 1.00   0.00  0.00  0.00  1.00  0.00  0.00  0.00  0.00  0.00
  WSL2041                 1.00   0.00  0.00  0.00  1.00  0.00  0.00  0.00  0.00  0.00
  WSL2294                 1.00   0.00  0.00  0.00  1.00  0.00  0.00  0.00  0.00  0.00
  WSL2295                 1.00   0.00  0.00  0.00  1.00  0.00  0.00  0.00  0.00  0.00
  WSL2296                 1.00   0.00  0.00  0.00  1.00  0.00  0.00  0.00  0.11  0.00
  WSL2297                 1.00   0.00  0.00  0.00  1.00  0.00  0.00  0.00  0.00  0.00
  WSL2298                 1.00   0.00  0.00  0.00  0.99  0.01  0.00  0.00  0.00  0.00
  WSL2301                 1.00   0.00  0.00  0.00  1.00  0.00  0.00  0.00  0.04  0.00
  WSL2302                 1.00   0.00  0.00  0.00  1.00  0.00  0.00  0.00  0.01  0.00
  WSL2441                 1.00   0.00  0.00  0.00  1.00  0.00  0.00  0.00  0.00  0.00
  WSL2442                 1.00   0.00  0.00  0.00  1.00  0.00  0.00  0.00  0.01  0.00
  WSL2443                 1.00   0.00  0.00  0.00  1.00  0.00  0.00  0.00  0.06  0.00
  WSL2444                 1.00   0.00  0.00  0.00  0.96  0.04  0.00  0.00  0.03  0.00
  WSL2446                 1.00   0.00  0.00  0.00  0.96  0.04  0.00  0.00  0.19  0.00
  WSL2447                 1.00   0.00  0.00  0.00  1.00  0.00  0.00  0.00  0.00  0.00
  WSL2448                 1.00   0.00  0.00  0.00  1.00  0.00  0.00  0.00  0.00  0.00
  WSL2449                 1.00   0.00  0.00  0.00  1.00  0.00  0.00  0.00  0.02  0.00
  WSL2450                 1.00   0.00  0.00  0.00  1.00  0.00  0.00  0.00  0.02  0.00
  WSL2451                 1.00   0.00  0.00  0.00  1.00  0.00  0.00  0.00  0.00  0.00
  WSL2452                 1.00   0.00  0.00  0.00  1.00  0.00  0.00  0.00  0.26  0.00
  WSL2454                 1.00   0.00  0.00  0.00  1.00  0.00  0.00  0.00  0.01  0.00
  WSL2478                 1.00   0.00  0.00  0.00  1.00  0.00  0.00  0.00  0.00  0.00
  WSL2479                 1.00   0.00  0.00  0.00  1.00  0.00  0.00  0.00  0.01  0.00
  WSL2480                 1.00   0.00  0.00  0.00  1.00  0.00  0.00  0.00  0.00  0.00
  WSL2482                 1.00   0.00  0.00  0.00  1.00  0.00  0.00  0.00  0.00  0.00
  WSL2484                 1.00   0.00  0.00  0.00  1.00  0.00  0.00  0.00  0.00  0.00
  WSL2493                 1.00   0.00  0.00  0.00  1.00  0.00  0.00  0.00  0.04  0.00
  8                       1.00   0.07  0.00  0.00  0.00  0.93  0.00  0.00  0.01  0.00
  19                      1.00   1.00  0.00  0.00  0.00  0.00  0.00  0.00  0.00  0.00
  17                      1.00   0.07  0.00  0.00  0.00  0.93  0.00  0.00  0.00  0.00
  
  
  *************************
  Conduit Surcharge Summary
  *************************
  
  ----------------------------------------------------------------------------
                                                           Hours        Hours 
                         --------- Hours Full --------   Above Full   Capacity
  Conduit                Both Ends  Upstream  Dnstream   Normal Flow   Limited
  ----------------------------------------------------------------------------
  WSL2038                     0.50      0.50      0.57      0.01         0.01
  WSL2039                     0.71      0.71      0.87      0.01         0.01
  WSL2041                     0.57      0.57      0.71      0.01         0.01
  WSL2294                     2.97      2.97      2.98      0.01         0.01
  WSL2295                     2.98      2.98      2.99      0.01         0.01
  WSL2296                     3.00      3.00      3.40      0.01         0.01
  WSL2297                     3.20      3.20      3.22      0.01         0.01
  WSL2298                     2.99      2.99      3.00      0.01         0.01
  WSL2301                     3.22      3.22      3.28      0.01         0.01
  WSL2302                     3.28      3.28      3.31      0.01         0.01
  WSL2441                     2.96      2.96      2.97      0.01         0.01
  WSL2442                     2.96      2.96      2.99      0.01         0.01
  WSL2443                     2.86      2.86      2.96      0.01         0.01
  WSL2444                     2.78      2.78      2.86      0.01         0.01
  WSL2446                     2.72      2.72      2.78      0.01         0.01
  WSL2447                     2.72      2.72      2.72      0.01         0.01
  WSL2448                     2.71      2.71      2.72      0.01         0.01
  WSL2449                     2.70      2.70      2.71      0.01         0.01
  WSL2450                     2.67      2.67      2.70      0.01         0.01
  WSL2451                     2.67      2.67      2.67      0.01         0.01
  WSL2452                     2.63      2.63      2.67      0.01         0.01
  WSL2454                     2.60      2.60      2.63      0.01         0.01
  WSL2478                     2.60      2.60      2.60      0.01         0.01
  WSL2479                     2.45      2.45      2.60      0.01         0.01
  WSL2480                     2.23      2.23      2.45      1.39         1.41
  WSL2482                     1.37      1.37      2.23      0.01         0.01
  WSL2484                     0.33      0.33      1.37      0.01         0.01
  WSL2493                     2.93      2.93      2.96      0.01         0.01
  
  
  ***************
  Pumping Summary
  ***************
  
  ---------------------------------------------------------------------------------------------------------
                                                  Min       Avg       Max     Total     Power    % Time Off
                        Percent   Number of      Flow      Flow      Flow    Volume     Usage    Pump Curve
  Pump                 Utilized   Start-Ups       MLD       MLD       MLD  10^6 ltr     Kw-hr    Low   High
  ---------------------------------------------------------------------------------------------------------
  CC-Pump-1              100.00           1      0.00      8.91     15.78     1.114     15.71    0.0    0.0
  CC-Pump-2              100.00           1      0.00      8.91     15.78     1.114     15.71    0.0    0.0
  
  
  ***************************
  Link Pollutant Load Summary
  ***************************
  
  ------------------------------------------------------------------------------------------
                                 COD         NH3-N            TN            TP            SS
  Link                            kg            kg            kg            kg            kg
  ------------------------------------------------------------------------------------------
  WSL2038                     42.519         0.000         0.000         0.000         0.000
  WSL2039                     46.978         0.000         0.000         0.000         0.000
  WSL2041                     45.307         0.000         0.000         0.000         0.000
  WSL2294                    208.161         0.000         0.000         0.000         0.000
  WSL2295                    205.721         0.000         0.000         0.000         0.000
  WSL2296                    210.045         0.000         0.000         0.000         0.000
  WSL2297                    207.941         0.000         0.000         0.000         0.000
  WSL2298                    205.686         0.000         0.000         0.000         0.000
  WSL2301                    206.657         0.000         0.000         0.000         0.000
  WSL2302                    206.567         0.000         0.000         0.000         0.000
  WSL2441                    210.508         0.000         0.000         0.000         0.000
  WSL2442                     46.509         0.000         0.000         0.000         0.000
  WSL2443                     45.597         0.000         0.000         0.000         0.000
  WSL2444                     44.000         0.000         0.000         0.000         0.000
  WSL2446                     43.362         0.000         0.000         0.000         0.000
  WSL2447                     42.483         0.000         0.000         0.000         0.000
  WSL2448                     40.480         0.000         0.000         0.000         0.000
  WSL2449                     37.436         0.000         0.000         0.000         0.000
  WSL2450                     36.701         0.000         0.000         0.000         0.000
  WSL2451                     37.189         0.000         0.000         0.000         0.000
  WSL2452                     38.024         0.000         0.000         0.000         0.000
  WSL2454                     36.749         0.000         0.000         0.000         0.000
  WSL2478                     37.589         0.000         0.000         0.000         0.000
  WSL2479                     14.656         0.000         0.000         0.000         0.000
  WSL2480                     79.115         0.000         0.000         0.000         0.000
  WSL2482                     74.575         0.000         0.000         0.000         0.000
  WSL2484                     49.582         0.000         0.000         0.000         0.000
  WSL2493                     48.684         0.000         0.000         0.000         0.000
  8                           79.985         0.000         0.000         0.000         0.000
  19                           0.000         0.000         0.000         0.000         0.000
  17                         202.123         0.000         0.000         0.000         0.000
  CC-Pump-1                    0.000         0.000         0.000         0.000         0.000
  CC-Pump-2                    0.000         0.000         0.000         0.000         0.000
  

  Analysis begun on:  Tue Dec 17 09:48:39 2019
  Analysis ended on:  Tue Dec 17 09:48:39 2019
  Total elapsed time: < 1 sec