
  EPA STORM WATER MANAGEMENT MODEL - VERSION 5.1 (Build 5.3.0.dev0)
  --------------------------------------------------------------

  
  *********************************************************
  NOTE: The summary statistics displayed in this report are
  based on results found at every computational time step,  
  not just on results from each reporting time step.
  *********************************************************
  
  ****************
  Analysis Options
  ****************
  Flow Units ............... MLD
  Process Models:
    Rainfall/Runoff ........ YES
    RDII ................... NO
    Snowmelt ............... NO
    Groundwater ............ NO
    Flow Routing ........... YES
    Ponding Allowed ........ NO
    Water Quality .......... YES
  Infiltration Method ...... GREEN_AMPT
  Flow Routing Method ...... DYNWAVE
  Surcharge Method ......... EXTRAN
  Starting Date ............ 08/28/2015 08:00:00
  Ending Date .............. 08/28/2015 12:00:00
  Antecedent Dry Days ...... 4.0
  Report Time Step ......... 00:01:00
  Wet Time Step ............ 00:01:00
  Dry Time Step ............ 00:01:00
  Routing Time Step ........ 5.00 sec
  Variable Time Step ....... YES
  Maximum Trials ........... 8
  Number of Threads ........ 1
  Head Tolerance ........... 0.001500 m
  
  
  **************************        Volume         Depth
  Runoff Quantity Continuity     hectare-m            mm
  **************************     ---------       -------
  Total Precipitation ......         1.457        23.556
  Evaporation Loss .........         0.000         0.000
  Infiltration Loss ........         0.578         9.348
  Surface Runoff ...........         0.388         6.271
  Final Storage ............         0.491         7.938
  Continuity Error (%) .....        -0.004
  
  
  **************************           COD         NH3-N            TN            TP            SS
  Runoff Quality Continuity             kg            kg            kg            kg            kg
  **************************    ----------    ----------    ----------    ----------    ----------
  Initial Buildup ..........      2504.640         0.000         0.000         0.000         0.000
  Surface Buildup ..........        19.555         0.000         0.000         0.000         0.000
  Wet Deposition ...........         0.000         0.000         0.000         0.000         0.000
  Sweeping Removal .........         0.000         0.000         0.000         0.000         0.000
  Infiltration Loss ........       153.004         0.000         0.000         0.000         0.000
  BMP Removal ..............         0.000         0.000         0.000         0.000         0.000
  Surface Runoff ...........       750.861         0.000         0.000         0.000         0.000
  Remaining Buildup ........      1618.780         0.000         0.000         0.000         0.000
  Continuity Error (%) .....         0.061         0.000         0.000         0.000         0.000
  
  
  **************************        Volume        Volume
  Flow Routing Continuity        hectare-m      10^6 ltr
  **************************     ---------     ---------
  Dry Weather Inflow .......         0.000         0.000
  Wet Weather Inflow .......         0.387         3.872
  Groundwater Inflow .......         0.000         0.000
  RDII Inflow ..............         0.000         0.000
  External Inflow ..........         0.085         0.854
  External Outflow .........         0.551         5.508
  Flooding Loss ............         0.000         0.000
  Evaporation Loss .........         0.000         0.000
  Exfiltration Loss ........         0.000         0.000
  Initial Stored Volume ....         0.000         0.000
  Final Stored Volume ......         0.047         0.465
  Continuity Error (%) .....       -26.393
  
  
  **************************           COD         NH3-N            TN            TP            SS
  Quality Routing Continuity            kg            kg            kg            kg            kg
  **************************    ----------    ----------    ----------    ----------    ----------
  Dry Weather Inflow .......         0.000         0.000         0.000         0.000         0.000
  Wet Weather Inflow .......       749.892         0.000         0.000         0.000         0.000
  Groundwater Inflow .......         0.000         0.000         0.000         0.000         0.000
  RDII Inflow ..............         0.000         0.000         0.000         0.000         0.000
  External Inflow ..........       142.556         0.000         0.000         0.000         0.000
  External Outflow .........       542.065         0.000         0.000         0.000         0.000
  Flooding Loss ............         0.000         0.000         0.000         0.000         0.000
  Exfiltration Loss ........         0.000         0.000         0.000         0.000         0.000
  Mass Reacted .............         0.000         0.000         0.000         0.000         0.000
  Initial Stored Mass ......         0.000         0.000         0.000         0.000         0.000
  Final Stored Mass ........        64.059         0.000         0.000         0.000         0.000
  Continuity Error (%) .....        32.083         0.000         0.000         0.000         0.000
  
  
  *************************
  Highest Continuity Errors
  *************************
  Node WS02006242 (4.50%)
  Node WS02006243 (4.18%)
  Node WS02006240 (4.06%)
  Node WS02006239 (3.75%)
  Node WS02006230 (3.43%)
  
  
  ***************************
  Time-Step Critical Elements
  ***************************
  Link 8 (92.74%)
  Link WSL2448 (5.97%)
  
  
  ********************************
  Highest Flow Instability Indexes
  ********************************
  Link WSL2302 (2)
  Link WSL2301 (2)
  Link WSL2297 (1)
  Link WSL2296 (1)
  Link WSL2295 (1)
  
  
  *************************
  Routing Time Step Summary
  *************************
  Minimum Time Step           :     0.48 sec
  Average Time Step           :     0.75 sec
  Maximum Time Step           :     5.00 sec
  Percent in Steady State     :    -0.00
  Average Iterations per Step :     2.06
  Percent Not Converging      :     0.34
  
  
  ***************************
  Subcatchment Runoff Summary
  ***************************
  
  ------------------------------------------------------------------------------------------------------------------------------
                            Total      Total      Total      Total     Imperv       Perv      Total       Total     Peak  Runoff
                           Precip      Runon       Evap      Infil     Runoff     Runoff     Runoff      Runoff   Runoff   Coeff
  Subcatchment                 mm         mm         mm         mm         mm         mm         mm    10^6 ltr      MLD
  ------------------------------------------------------------------------------------------------------------------------------
  1                         23.56      33.55       0.00      11.21      13.69      17.38      31.06        0.38     5.46   0.544
  2                         23.56       0.00       0.00       8.81       5.71       3.26       8.97        0.30     5.25   0.381
  3                         23.56       0.00       0.00       8.89       5.66       2.79       8.45        0.43     7.48   0.359
  35                        23.56       0.00       0.00       8.79       5.72       3.39       9.11        0.28     4.79   0.387
  36                        23.56      18.55       0.00      10.88       9.88       6.94      16.82        0.99    14.18   0.399
  40                        23.56       4.82       0.00       9.42       6.81       4.27      11.07        0.43     7.01   0.390
  41                        23.56       0.00       0.00       8.69       5.76       3.97       9.73        0.19     3.28   0.413
  42                        23.56       0.00       0.00       8.73       5.75       3.75       9.50        0.22     3.76   0.403
  43                        23.56       0.00       0.00       8.16       5.84       6.46      12.31        0.04     0.80   0.523
  44                        23.56     278.94       0.00      17.39      74.27     174.77     249.04        0.92    14.22   0.823
  45                        23.56       0.00       0.00       8.51       5.80       4.86      10.67        0.11     1.92   0.453
  46                        23.56      15.60       0.00      10.28       9.40       8.77      18.17        0.39     5.63   0.464
  47                        23.56       0.00       0.00       8.53       5.80       4.75      10.55        0.12     2.04   0.448
  48                        23.56       7.40       0.00       9.43       7.52       6.71      14.22        0.22     3.53   0.460
  55                        23.56      11.09       0.00       9.52       8.46       9.64      18.10        0.15     2.31   0.522
  56                        23.56      17.09       0.00      10.41       9.75       9.29      19.05        0.41     5.84   0.469
  57                        23.56       0.00       0.00       8.89       5.67       2.81       8.47        0.42     7.36   0.360
  59                        23.56       0.00       0.00       8.45       5.81       5.17      10.98        0.09     1.62   0.466
  60                        23.56      24.03       0.00      10.26      11.64      17.21      28.85        0.15     2.28   0.606
  61                        23.56       0.00       0.00       9.07       5.43       1.66       7.08        1.27    21.84   0.301
  64                        23.56       0.00       0.00       8.56       5.79       4.64      10.44        0.13     2.18   0.443
  
  
  ****************************
  Subcatchment Washoff Summary
  ****************************
  
  ------------------------------------------------------------------------------------------
                                 COD         NH3-N            TN            TP            SS
  Subcatchment                    kg            kg            kg            kg            kg
  ------------------------------------------------------------------------------------------
  1                           71.929         0.000         0.000         0.000         0.000
  2                            0.000         0.000         0.000         0.000         0.000
  3                            0.000         0.000         0.000         0.000         0.000
  35                          57.857         0.000         0.000         0.000         0.000
  36                         334.172         0.000         0.000         0.000         0.000
  40                         111.225         0.000         0.000         0.000         0.000
  41                          40.656         0.000         0.000         0.000         0.000
  42                          46.208         0.000         0.000         0.000         0.000
  43                          10.412         0.000         0.000         0.000         0.000
  44                         313.749         0.000         0.000         0.000         0.000
  45                          24.555         0.000         0.000         0.000         0.000
  46                         124.869         0.000         0.000         0.000         0.000
  47                          26.071         0.000         0.000         0.000         0.000
  48                          63.359         0.000         0.000         0.000         0.000
  55                          44.007         0.000         0.000         0.000         0.000
  56                         128.674         0.000         0.000         0.000         0.000
  57                          85.919         0.000         0.000         0.000         0.000
  59                          20.842         0.000         0.000         0.000         0.000
  60                          41.818         0.000         0.000         0.000         0.000
  61                         235.257         0.000         0.000         0.000         0.000
  64                          27.747         0.000         0.000         0.000         0.000
  ------------------------------------------------------------------------------------------
  System                    1809.326         0.000         0.000         0.000         0.000
  
  
  ******************
  Node Depth Summary
  ******************
  
  ---------------------------------------------------------------------------------
                                 Average  Maximum  Maximum  Time of Max    Reported
                                   Depth    Depth      HGL   Occurrence   Max Depth
  Node                 Type       Meters   Meters   Meters  days hr:min      Meters
  ---------------------------------------------------------------------------------
  WS01000070           JUNCTION     0.00     0.00     0.00     0  00:00        0.00
  WS01000323           JUNCTION     0.00     0.00     0.00     0  00:00        0.00
  WS01000533           JUNCTION     0.00     0.00     6.86     0  00:00        0.00
  WS01005172           JUNCTION     0.00     0.00     0.00     0  00:00        0.00
  WS01005181           JUNCTION     0.00     0.00     0.00     0  00:00        0.00
  WS01009841           JUNCTION     0.00     0.00     0.00     0  00:00        0.00
  WS02000078           JUNCTION     0.00     0.00     0.00     0  00:00        0.00
  WS02000112           JUNCTION     0.00     0.00     0.00     0  00:00        0.00
  WS02000136           JUNCTION     0.00     0.00     0.00     0  00:00        0.00
  WS02004053           JUNCTION     0.00     0.00     0.00     0  00:00        0.00
  WS02004401           JUNCTION     2.24     2.36     8.36     0  02:31        2.36
  WS02005192           JUNCTION     0.56     0.75     8.62     0  02:24        0.75
  WS02005193           JUNCTION     0.61     0.79     8.61     0  02:24        0.79
  WS02005196           JUNCTION     0.58     0.76     8.61     0  02:24        0.76
  WS02006109           JUNCTION     1.66     1.80     8.42     0  02:33        1.80
  WS02006110           JUNCTION     1.67     1.81     8.41     0  02:31        1.81
  WS02006111           JUNCTION     1.68     1.81     8.39     0  02:31        1.81
  WS02006112           JUNCTION     2.12     2.26     8.38     0  02:31        2.26
  WS02006113           JUNCTION     1.68     1.81     8.40     0  02:31        1.81
  WS02006115           JUNCTION     2.14     2.27     8.37     0  02:31        2.27
  WS02006116           JUNCTION     2.20     2.33     8.37     0  02:31        2.33
  WS02006183           JUNCTION     0.00     0.00     0.00     0  00:00        0.00
  WS02006228           JUNCTION     1.63     1.77     8.42     0  02:34        1.77
  WS02006229           JUNCTION     1.59     1.73     8.42     0  02:34        1.73
  WS02006230           JUNCTION     1.54     1.68     8.43     0  02:33        1.68
  WS02006231           JUNCTION     1.39     1.53     8.43     0  02:31        1.53
  WS02006232           JUNCTION     1.27     1.40     8.43     0  02:31        1.40
  WS02006234           JUNCTION     1.14     1.27     8.43     0  02:31        1.27
  WS02006235           JUNCTION     1.14     1.26     8.43     0  02:31        1.26
  WS02006238           JUNCTION     1.13     1.25     8.43     0  02:31        1.25
  WS02006239           JUNCTION     1.10     1.22     8.43     0  02:33        1.22
  WS02006242           JUNCTION     1.01     1.13     8.43     0  02:33        1.13
  WS02006240           JUNCTION     1.02     1.14     8.43     0  02:33        1.14
  WS02006243           JUNCTION     0.90     1.01     8.43     0  02:34        1.01
  WS02006245           JUNCTION     0.83     0.94     8.43     0  02:34        0.94
  WS02006247           JUNCTION     0.82     0.92     8.43     0  02:35        0.92
  WS02006248           JUNCTION     0.74     0.84     8.43     0  02:34        0.84
  WS02006249           JUNCTION     0.75     0.87     8.47     0  02:30        0.87
  WS02006251           JUNCTION     0.73     0.89     8.56     0  02:26        0.89
  WS02006253           JUNCTION     0.63     0.81     8.61     0  02:25        0.81
  WS02618401           JUNCTION     0.00     0.00     0.00     0  00:00        0.00
  WSA1649              JUNCTION     0.00     0.00     0.00     0  00:00        0.00
  outfall-5            OUTFALL      0.17     0.24     7.90     0  02:34        0.24
  outfall-14           OUTFALL      0.12     0.16     7.82     0  02:31        0.16
  outfall-16           OUTFALL      0.00     0.00     8.39     0  00:00        0.00
  CC-storage           STORAGE      0.00     0.00     3.18     0  00:00        0.00
  
  
  *******************
  Node Inflow Summary
  *******************
  
  -------------------------------------------------------------------------------------------------
                                  Maximum  Maximum                  Lateral       Total        Flow
                                  Lateral    Total  Time of Max      Inflow      Inflow     Balance
                                   Inflow   Inflow   Occurrence      Volume      Volume       Error
  Node                 Type           MLD      MLD  days hr:min    10^6 ltr    10^6 ltr     Percent
  -------------------------------------------------------------------------------------------------
  WS01000070           JUNCTION      0.00     0.00     0  00:00           0           0       0.000 ltr
  WS01000323           JUNCTION      0.00     0.00     0  00:00           0           0       0.000 ltr
  WS01000533           JUNCTION      0.00     0.00     0  00:00           0           0       0.000 ltr
  WS01005172           JUNCTION      0.00     0.00     0  00:00           0           0       0.000 ltr
  WS01005181           JUNCTION      0.00     0.00     0  00:00           0           0       0.000 ltr
  WS01009841           JUNCTION      0.00     0.00     0  00:00           0           0       0.000 ltr
  WS02000078           JUNCTION      0.00     0.00     0  00:00           0           0       0.000 ltr
  WS02000112           JUNCTION      0.00     0.00     0  00:00           0           0       0.000 ltr
  WS02000136           JUNCTION      0.00     0.00     0  00:00           0           0       0.000 ltr
  WS02004053           JUNCTION      0.00     0.00     0  00:00           0           0       0.000 ltr
  WS02004401           JUNCTION      0.05    26.86     0  02:32     0.00897        2.04       1.411
  WS02005192           JUNCTION      7.45     7.45     0  02:22       0.441       0.442       0.633
  WS02005193           JUNCTION      0.09     7.65     0  02:22      0.0146        0.48       1.622
  WS02005196           JUNCTION      0.12     7.56     0  02:22       0.019       0.463       1.558
  WS02006109           JUNCTION      0.08    19.64     0  03:00      0.0135        1.67       1.479
  WS02006110           JUNCTION      0.08    19.71     0  03:00      0.0132        1.65       1.511
  WS02006111           JUNCTION      0.24    26.37     0  02:32      0.0366        2.09       0.999
  WS02006112           JUNCTION      0.18    26.52     0  02:32      0.0273        2.09       1.569
  WS02006113           JUNCTION      7.63    26.16     0  02:32       0.457        2.08       1.153
  WS02006115           JUNCTION      0.08    26.60     0  02:32      0.0134        2.08       1.843
  WS02006116           JUNCTION      0.24    26.81     0  02:32       0.036        2.08       1.667
  WS02006183           JUNCTION      0.00     0.00     0  00:00           0           0       0.000 ltr
  WS02006228           JUNCTION     14.38    19.57     0  03:00       0.947        1.68       1.095
  WS02006229           JUNCTION      0.13     8.80     0  02:12        0.02       0.751       2.191
  WS02006230           JUNCTION      0.07     8.76     0  02:13      0.0116        0.75       3.549
  WS02006231           JUNCTION      0.13     8.69     0  02:13      0.0205       0.746       2.068
  WS02006232           JUNCTION      5.33     8.57     0  02:13       0.316       0.745       2.100
  WS02006234           JUNCTION      0.14     5.74     0  00:11      0.0216       0.445       3.180
  WS02006235           JUNCTION      0.14     5.60     0  00:11      0.0223       0.429       1.844
  WS02006238           JUNCTION      0.15     5.46     0  00:11      0.0235       0.416       2.469
  WS02006239           JUNCTION      0.11     5.34     0  00:10      0.0174       0.406       3.891
  WS02006242           JUNCTION      0.08     5.31     0  01:07      0.0129       0.408       4.710
  WS02006240           JUNCTION      0.06     5.24     0  00:09     0.00992       0.402       4.227
  WS02006243           JUNCTION      0.17     5.83     0  01:10      0.0269       0.411       4.359
  WS02006245           JUNCTION      0.07     6.28     0  01:15      0.0113       0.397       3.427
  WS02006247           JUNCTION      5.60     6.67     0  01:14         0.4       0.703       1.642
  WS02006248           JUNCTION      0.12    49.38     0  02:34      0.0192        3.81       0.284
  WS02006249           JUNCTION      0.19    44.83     0  02:23      0.0286        3.49       0.424
  WS02006251           JUNCTION      2.37    44.67     0  02:23        0.16        3.47       0.427
  WS02006253           JUNCTION      0.11    42.31     0  02:22      0.0173        3.33       0.229
  WS02618401           JUNCTION      0.00     0.00     0  00:00           0           0       0.000 ltr
  WSA1649              JUNCTION      0.00     0.00     0  00:00           0           0       0.000 ltr
  outfall-5            OUTFALL       0.00    49.38     0  02:34           0         3.5       0.000
  outfall-14           OUTFALL       0.00    26.86     0  02:31           0        2.01       0.000
  outfall-16           OUTFALL       0.00     0.00     0  00:00           0           0       0.000 ltr
  CC-storage           STORAGE      23.46    23.46     0  02:25        1.56        1.56     -45.204
  
  
  **********************
  Node Surcharge Summary
  **********************
  
  Surcharging occurs when water rises above the top of the highest conduit.
  ---------------------------------------------------------------------
                                               Max. Height   Min. Depth
                                   Hours       Above Crown    Below Rim
  Node                 Type      Surcharged         Meters       Meters
  ---------------------------------------------------------------------
  WS01000070           JUNCTION        4.00          0.000        0.000
  WS01000323           JUNCTION        4.00          0.000        0.000
  WS01000533           JUNCTION        4.00          0.000        2.147
  WS01005172           JUNCTION        4.00          0.000        0.000
  WS01005181           JUNCTION        4.00          0.000        0.000
  WS01009841           JUNCTION        4.00          0.000        0.000
  WS02000078           JUNCTION        4.00          0.000        0.000
  WS02000112           JUNCTION        4.00          0.000        0.000
  WS02000136           JUNCTION        4.00          0.000        0.000
  WS02004053           JUNCTION        4.00          0.000        0.000
  WS02005192           JUNCTION        1.14          0.147        2.672
  WS02005193           JUNCTION        1.38          0.190        2.427
  WS02005196           JUNCTION        1.21          0.164        2.542
  WS02006109           JUNCTION        2.97          0.997        0.841
  WS02006110           JUNCTION        2.98          1.008        0.837
  WS02006111           JUNCTION        3.00          1.007        0.870
  WS02006112           JUNCTION        3.20          1.256        0.427
  WS02006113           JUNCTION        2.99          1.011        0.922
  WS02006115           JUNCTION        3.22          1.271        1.028
  WS02006116           JUNCTION        3.28          1.328        1.022
  WS02006183           JUNCTION        4.00          0.000        0.000
  WS02006228           JUNCTION        2.96          0.974        1.257
  WS02006229           JUNCTION        2.93          0.934        1.520
  WS02006231           JUNCTION        2.86          0.826        0.717
  WS02006232           JUNCTION        2.78          0.697        0.792
  WS02006234           JUNCTION        2.71          0.567        0.690
  WS02006235           JUNCTION        2.71          0.557        0.737
  WS02006238           JUNCTION        2.71          0.547        0.887
  WS02006239           JUNCTION        2.70          0.517        0.812
  WS02006242           JUNCTION        2.66          0.427        0.422
  WS02006240           JUNCTION        2.66          0.437        0.966
  WS02006243           JUNCTION        2.62          0.307        0.473
  WS02006245           JUNCTION        2.59          0.237        0.618
  WS02006247           JUNCTION        2.59          0.216        0.544
  WS02006249           JUNCTION        2.55          0.168        0.220
  WS02006251           JUNCTION        1.75          0.191        1.319
  WS02006253           JUNCTION        1.04          0.107        2.347
  WS02618401           JUNCTION        4.00          0.000        0.000
  WSA1649              JUNCTION        4.00          0.000        0.000
  
  
  *********************
  Node Flooding Summary
  *********************
  
  No nodes were flooded.
  
  
  **********************
  Storage Volume Summary
  **********************
  
  --------------------------------------------------------------------------------------------------
                         Average     Avg  Evap Exfil       Maximum     Max    Time of Max    Maximum
                          Volume    Pcnt  Pcnt  Pcnt        Volume    Pcnt     Occurrence    Outflow
  Storage Unit           1000 m3    Full  Loss  Loss       1000 m3    Full    days hr:min        MLD
  --------------------------------------------------------------------------------------------------
  CC-storage               0.000       0     0     0         0.000       0       0  00:00      34.56
  
  
  ***********************
  Outfall Loading Summary
  ***********************
  
  ---------------------------------------------------------------------------------------------------------------------------------
                         Flow       Avg       Max       Total         Total         Total         Total         Total         Total
                         Freq      Flow      Flow      Volume           COD         NH3-N            TN            TP            SS
  Outfall Node           Pcnt       MLD       MLD    10^6 ltr            kg            kg            kg            kg            kg
  ---------------------------------------------------------------------------------------------------------------------------------
  outfall-5             92.80     33.16     49.38       3.502       203.578         0.000         0.000         0.000         0.000
  outfall-14            92.67     19.00     26.86       2.006       338.499         0.000         0.000         0.000         0.000
  outfall-16             0.00      0.00      0.00       0.000         0.000         0.000         0.000         0.000         0.000
  ---------------------------------------------------------------------------------------------------------------------------------
  System                61.82     52.16     76.23       5.508       542.076         0.000         0.000         0.000         0.000
  
  
  ********************
  Link Flow Summary
  ********************
  
  -----------------------------------------------------------------------------
                                 Maximum  Time of Max   Maximum    Max/    Max/
                                  |Flow|   Occurrence   |Veloc|    Full    Full
  Link                 Type          MLD  days hr:min     m/sec    Flow   Depth
  -----------------------------------------------------------------------------
  WSL2038              CONDUIT      7.45     0  02:22      0.31    0.37    1.00
  WSL2039              CONDUIT      7.65     0  02:22      0.46    0.39    1.00
  WSL2041              CONDUIT      7.56     0  02:22      0.33    0.37    1.00
  WSL2294              CONDUIT     19.63     0  03:00      0.65    0.66    1.00
  WSL2295              CONDUIT     19.70     0  03:00      0.72    0.89    1.00
  WSL2296              CONDUIT     26.37     0  02:32      1.08    0.15    1.00
  WSL2297              CONDUIT     26.52     0  02:32      0.57    0.51    1.00
  WSL2298              CONDUIT     26.16     0  02:32      1.20    1.20    1.00
  WSL2301              CONDUIT     26.60     0  02:32      0.39    0.25    1.00
  WSL2302              CONDUIT     26.81     0  02:32      0.40    0.33    1.00
  WSL2441              CONDUIT     19.56     0  03:00      0.72    0.50    1.00
  WSL2442              CONDUIT      8.68     0  02:12      0.89    0.22    1.00
  WSL2443              CONDUIT      8.69     0  02:13      1.02    0.14    1.00
  WSL2444              CONDUIT      8.57     0  02:13      1.18    0.14    1.00
  WSL2446              CONDUIT      5.74     0  00:12      1.14    0.10    1.00
  WSL2447              CONDUIT      5.60     0  00:11      0.91    0.29    1.00
  WSL2448              CONDUIT      5.46     0  00:11      0.76    0.15    1.00
  WSL2449              CONDUIT      5.31     0  00:11      0.71    0.19    1.00
  WSL2450              CONDUIT      5.23     0  00:10      0.84    0.11    1.00
  WSL2451              CONDUIT      5.18     0  00:09      0.76    0.34    1.00
  WSL2452              CONDUIT      5.23     0  01:07      0.86    0.10    1.00
  WSL2454              CONDUIT      5.66     0  01:10      0.95    0.13    1.00
  WSL2478              CONDUIT      6.21     0  01:15      0.86    0.22    1.00
  WSL2479              CONDUIT      6.28     0  01:14      0.85    0.12    1.00
  WSL2480              CONDUIT     44.83     0  02:23      1.35    2.07    1.00
  WSL2482              CONDUIT     44.67     0  02:23      1.34    1.16    1.00
  WSL2484              CONDUIT     42.31     0  02:22      1.35    0.60    1.00
  WSL2493              CONDUIT      8.80     0  02:12      0.78    0.15    1.00
  8                    CONDUIT     49.38     0  02:34      7.43    0.65    0.59
  19                   CONDUIT      0.00     0  00:00      0.00    0.00    0.00
  17                   CONDUIT     26.86     0  02:31      6.45    0.35    0.41
  CC-Pump-1            PUMP        17.28     0  02:10              1.00
  CC-Pump-2            PUMP        17.28     0  02:10              1.00
  
  
  ***************************
  Flow Classification Summary
  ***************************
  
  -------------------------------------------------------------------------------------
                      Adjusted    ---------- Fraction of Time in Flow Class ---------- 
                       /Actual         Up    Down  Sub   Sup   Up    Down  Norm  Inlet 
  Conduit               Length    Dry  Dry   Dry   Crit  Crit  Crit  Crit  Ltd   Ctrl  
  -------------------------------------------------------------------------------------
  WSL2038                 1.00   0.00  0.00  0.00  1.00  0.00  0.00  0.00  0.00  0.00
  WSL2039                 1.00   0.00  0.00  0.00  1.00  0.00  0.00  0.00  0.00  0.00
  WSL2041                 1.00   0.00  0.00  0.00  1.00  0.00  0.00  0.00  0.00  0.00
  WSL2294                 1.00   0.00  0.00  0.00  1.00  0.00  0.00  0.00  0.00  0.00
  WSL2295                 1.00   0.00  0.00  0.00  1.00  0.00  0.00  0.00  0.00  0.00
  WSL2296                 1.00   0.00  0.00  0.00  1.00  0.00  0.00  0.00  0.11  0.00
  WSL2297                 1.00   0.00  0.00  0.00  1.00  0.00  0.00  0.00  0.00  0.00
  WSL2298                 1.00   0.00  0.00  0.00  0.99  0.01  0.00  0.00  0.00  0.00
  WSL2301                 1.00   0.00  0.00  0.00  1.00  0.00  0.00  0.00  0.04  0.00
  WSL2302                 1.00   0.00  0.00  0.00  1.00  0.00  0.00  0.00  0.01  0.00
  WSL2441                 1.00   0.00  0.00  0.00  1.00  0.00  0.00  0.00  0.00  0.00
  WSL2442                 1.00   0.00  0.00  0.00  1.00  0.00  0.00  0.00  0.01  0.00
  WSL2443                 1.00   0.00  0.00  0.00  1.00  0.00  0.00  0.00  0.06  0.00
  WSL2444                 1.00   0.00  0.00  0.00  0.96  0.04  0.00  0.00  0.03  0.00
  WSL2446                 1.00   0.00  0.00  0.00  0.96  0.04  0.00  0.00  0.19  0.00
  WSL2447                 1.00   0.00  0.00  0.00  1.00  0.00  0.00  0.00  0.00  0.00
  WSL2448                 1.00   0.00  0.00  0.00  1.00  0.00  0.00  0.00  0.00  0.00
  WSL2449                 1.00   0.00  0.00  0.00  1.00  0.00  0.00  0.00  0.02  0.00
  WSL2450                 1.00   0.00  0.00  0.00  1.00  0.00  0.00  0.00  0.02  0.00
  WSL2451                 1.00   0.00  0.00  0.00  1.00  0.00  0.00  0.00  0.00  0.00
  WSL2452                 1.00   0.00  0.00  0.00  1.00  0.00  0.00  0.00  0.26  0.00
  WSL2454                 1.00   0.00  0.00  0.00  1.00  0.00  0.00  0.00  0.01  0.00
  WSL2478                 1.00   0.00  0.00  0.00  1.00  0.00  0.00  0.00  0.00  0.00
  WSL2479                 1.00   0.00  0.00  0.00  1.00  0.00  0.00  0.00  0.01  0.00
  WSL2480                 1.00   0.00  0.00  0.00  1.00  0.00  0.00  0.00  0.00  0.00
  WSL2482                 1.00   0.00  0.00  0.00  1.00  0.00  0.00  0.00  0.00  0.00
  WSL2484                 1.00   0.00  0.00  0.00  1.00  0.00  0.00  0.00  0.01  0.00
  WSL2493                 1.00   0.00  0.00  0.00  1.00  0.00  0.00  0.00  0.04  0.00
  8                       1.00   0.07  0.00  0.00  0.00  0.93  0.00  0.00  0.01  0.00
  19                      1.00   1.00  0.00  0.00  0.00  0.00  0.00  0.00  0.00  0.00
  17                      1.00   0.07  0.00  0.00  0.00  0.93  0.00  0.00  0.00  0.00
  
  
  *************************
  Conduit Surcharge Summary
  *************************
  
  ----------------------------------------------------------------------------
                                                           Hours        Hours 
                         --------- Hours Full --------   Above Full   Capacity
  Conduit                Both Ends  Upstream  Dnstream   Normal Flow   Limited
  ----------------------------------------------------------------------------
  WSL2038                     1.14      1.14      1.21      0.01         0.01
  WSL2039                     1.38      1.38      1.51      0.01         0.01
  WSL2041                     1.21      1.21      1.38      0.01         0.01
  WSL2294                     2.97      2.97      2.98      0.01         0.01
  WSL2295                     2.98      2.98      2.99      0.01         0.01
  WSL2296                     3.00      3.00      3.40      0.01         0.01
  WSL2297                     3.20      3.20      3.22      0.01         0.01
  WSL2298                     2.99      2.99      3.00      0.96         0.97
  WSL2301                     3.22      3.22      3.28      0.01         0.01
  WSL2302                     3.28      3.28      3.31      0.01         0.01
  WSL2441                     2.96      2.96      2.97      0.01         0.01
  WSL2442                     2.96      2.96      2.99      0.01         0.01
  WSL2443                     2.86      2.86      2.96      0.01         0.01
  WSL2444                     2.78      2.78      2.86      0.01         0.01
  WSL2446                     2.71      2.71      2.78      0.01         0.01
  WSL2447                     2.71      2.71      2.71      0.01         0.01
  WSL2448                     2.71      2.71      2.71      0.01         0.01
  WSL2449                     2.70      2.70      2.71      0.01         0.01
  WSL2450                     2.66      2.66      2.70      0.01         0.01
  WSL2451                     2.66      2.66      2.66      0.01         0.01
  WSL2452                     2.62      2.62      2.66      0.01         0.01
  WSL2454                     2.59      2.59      2.62      0.01         0.01
  WSL2478                     2.59      2.59      2.59      0.01         0.01
  WSL2479                     2.56      2.56      2.59      0.01         0.01
  WSL2480                     2.55      2.55      2.56      1.69         1.71
  WSL2482                     1.75      1.75      2.55      0.94         0.94
  WSL2484                     1.04      1.04      1.75      0.01         0.01
  WSL2493                     2.93      2.93      2.96      0.01         0.01
  
  
  ***************
  Pumping Summary
  ***************
  
  ---------------------------------------------------------------------------------------------------------
                                                  Min       Avg       Max     Total     Power    % Time Off
                        Percent   Number of      Flow      Flow      Flow    Volume     Usage    Pump Curve
  Pump                 Utilized   Start-Ups       MLD       MLD       MLD  10^6 ltr     Kw-hr    Low   High
  ---------------------------------------------------------------------------------------------------------
  CC-Pump-1              100.00           1      0.00     11.53     17.28     1.424     20.44    0.0    0.0
  CC-Pump-2              100.00           1      0.00     11.53     17.28     1.424     20.44    0.0    0.0
  
  
  ***************************
  Link Pollutant Load Summary
  ***************************
  
  ------------------------------------------------------------------------------------------
                                 COD         NH3-N            TN            TP            SS
  Link                            kg            kg            kg            kg            kg
  ------------------------------------------------------------------------------------------
  WSL2038                     88.830         0.000         0.000         0.000         0.000
  WSL2039                     93.149         0.000         0.000         0.000         0.000
  WSL2041                     91.522         0.000         0.000         0.000         0.000
  WSL2294                    347.552         0.000         0.000         0.000         0.000
  WSL2295                    344.727         0.000         0.000         0.000         0.000
  WSL2296                    348.524         0.000         0.000         0.000         0.000
  WSL2297                    345.683         0.000         0.000         0.000         0.000
  WSL2298                    344.436         0.000         0.000         0.000         0.000
  WSL2301                    343.820         0.000         0.000         0.000         0.000
  WSL2302                    342.973         0.000         0.000         0.000         0.000
  WSL2441                    350.331         0.000         0.000         0.000         0.000
  WSL2442                     35.160         0.000         0.000         0.000         0.000
  WSL2443                     33.397         0.000         0.000         0.000         0.000
  WSL2444                     30.868         0.000         0.000         0.000         0.000
  WSL2446                     29.343         0.000         0.000         0.000         0.000
  WSL2447                     27.659         0.000         0.000         0.000         0.000
  WSL2448                     25.060         0.000         0.000         0.000         0.000
  WSL2449                     21.835         0.000         0.000         0.000         0.000
  WSL2450                     20.016         0.000         0.000         0.000         0.000
  WSL2451                     19.457         0.000         0.000         0.000         0.000
  WSL2452                     19.136         0.000         0.000         0.000         0.000
  WSL2454                     17.110         0.000         0.000         0.000         0.000
  WSL2478                     17.629         0.000         0.000         0.000         0.000
  WSL2479                     71.043         0.000         0.000         0.000         0.000
  WSL2480                    145.647         0.000         0.000         0.000         0.000
  WSL2482                    141.108         0.000         0.000         0.000         0.000
  WSL2484                     95.736         0.000         0.000         0.000         0.000
  WSL2493                     37.920         0.000         0.000         0.000         0.000
  8                          203.578         0.000         0.000         0.000         0.000
  19                           0.000         0.000         0.000         0.000         0.000
  17                         338.499         0.000         0.000         0.000         0.000
  CC-Pump-1                    0.000         0.000         0.000         0.000         0.000
  CC-Pump-2                    0.000         0.000         0.000         0.000         0.000
  

  Analysis begun on:  Sun Dec 29 18:06:08 2019
  Analysis ended on:  Sun Dec 29 18:06:11 2019
  Total elapsed time: 00:00:03