
  EPA STORM WATER MANAGEMENT MODEL - VERSION 5.1 (Build 5.2.0.dev1)
  --------------------------------------------------------------

  
  *********************************************************
  NOTE: The summary statistics displayed in this report are
  based on results found at every computational time step,  
  not just on results from each reporting time step.
  *********************************************************
  
  ****************
  Analysis Options
  ****************
  Flow Units ............... MLD
  Process Models:
    Rainfall/Runoff ........ YES
    RDII ................... NO
    Snowmelt ............... NO
    Groundwater ............ NO
    Flow Routing ........... YES
    Ponding Allowed ........ NO
    Water Quality .......... YES
  Infiltration Method ...... GREEN_AMPT
  Flow Routing Method ...... DYNWAVE
  Starting Date ............ 08/28/2015 08:00:00
  Ending Date .............. 08/28/2015 12:00:00
  Antecedent Dry Days ...... 4.0
  Report Time Step ......... 00:01:00
  Wet Time Step ............ 00:01:00
  Dry Time Step ............ 00:01:00
  Routing Time Step ........ 5.00 sec
  Variable Time Step ....... YES
  Maximum Trials ........... 8
  Number of Threads ........ 1
  Head Tolerance ........... 0.001500 m
  
  
  **************************        Volume         Depth
  Runoff Quantity Continuity     hectare-m            mm
  **************************     ---------       -------
  Total Precipitation ......         5.282        18.725
  Evaporation Loss .........         0.000         0.000
  Infiltration Loss ........         2.346         8.318
  Surface Runoff ...........         1.499         5.316
  Final Storage ............         1.438         5.100
  Continuity Error (%) .....        -0.046
  
  
  **************************           COD         NH3-N            TN            TP            SS
  Runoff Quality Continuity             kg            kg            kg            kg            kg
  **************************    ----------    ----------    ----------    ----------    ----------
  Initial Buildup ..........     13074.240         0.000         0.000         0.000         0.000
  Surface Buildup ..........       105.712         0.000         0.000         0.000         0.000
  Wet Deposition ...........         0.000         0.000         0.000         0.000         0.000
  Sweeping Removal .........         0.000         0.000         0.000         0.000         0.000
  Infiltration Loss ........       219.270         0.000         0.000         0.000         0.000
  BMP Removal ..............         0.000         0.000         0.000         0.000         0.000
  Surface Runoff ...........      2438.248         0.000         0.000         0.000         0.000
  Remaining Buildup ........     10520.649         0.000         0.000         0.000         0.000
  Continuity Error (%) .....         0.014         0.000         0.000         0.000         0.000
  
  
  **************************        Volume        Volume
  Flow Routing Continuity        hectare-m      10^6 ltr
  **************************     ---------     ---------
  Dry Weather Inflow .......         0.000         0.000
  Wet Weather Inflow .......         1.496        14.961
  Groundwater Inflow .......         0.000         0.000
  RDII Inflow ..............         0.000         0.000
  External Inflow ..........         0.561         5.611
  External Outflow .........         1.071        10.708
  Flooding Loss ............         0.886         8.855
  Evaporation Loss .........         0.000         0.000
  Exfiltration Loss ........         0.000         0.000
  Initial Stored Volume ....         0.000         0.000
  Final Stored Volume ......         0.101         1.012
  Continuity Error (%) .....        -0.012
  
  
  **************************           COD         NH3-N            TN            TP            SS
  Quality Routing Continuity            kg            kg            kg            kg            kg
  **************************    ----------    ----------    ----------    ----------    ----------
  Dry Weather Inflow .......         0.000         0.000         0.000         0.000         0.000
  Wet Weather Inflow .......      2435.108         0.000         0.000         0.000         0.000
  Groundwater Inflow .......         0.000         0.000         0.000         0.000         0.000
  RDII Inflow ..............         0.000         0.000         0.000         0.000         0.000
  External Inflow ..........       937.019         0.000         0.000         0.000         0.000
  External Outflow .........      1887.426         0.000         0.000         0.000         0.000
  Flooding Loss ............      1365.261         0.000         0.000         0.000         0.000
  Exfiltration Loss ........         0.000         0.000         0.000         0.000         0.000
  Mass Reacted .............         0.000         0.000         0.000         0.000         0.000
  Initial Stored Mass ......         0.000         0.000         0.000         0.000         0.000
  Final Stored Mass ........       118.948         0.000         0.000         0.000         0.000
  Continuity Error (%) .....         0.015         0.000         0.000         0.000         0.000
  
  
  ***************************
  Time-Step Critical Elements
  ***************************
  Link WSL2448 (54.44%)
  Link WSL1477 (25.57%)
  Link WSL2867 (2.52%)
  
  
  ********************************
  Highest Flow Instability Indexes
  ********************************
  Link WSL1477 (33)
  Link WSL1516 (27)
  Link WSL1515 (26)
  Link WSL2867 (23)
  Link WSL2868 (21)
  
  
  *************************
  Routing Time Step Summary
  *************************
  Minimum Time Step           :     0.76 sec
  Average Time Step           :     2.81 sec
  Maximum Time Step           :     5.00 sec
  Percent in Steady State     :     0.00
  Average Iterations per Step :     3.34
  Percent Not Converging      :    11.14
  
  
  ***************************
  Subcatchment Runoff Summary
  ***************************
  
  --------------------------------------------------------------------------------------------------------
                            Total      Total      Total      Total      Total       Total     Peak  Runoff
                           Precip      Runon       Evap      Infil     Runoff      Runoff   Runoff   Coeff
  Subcatchment                 mm         mm         mm         mm         mm    10^6 ltr      MLD
  --------------------------------------------------------------------------------------------------------
  1                         18.73      23.88       0.00      10.38      21.68        0.26     3.17   0.509
  2                         18.73       0.00       0.00       8.22       6.60        0.22     3.65   0.352
  3                         18.73       0.00       0.00       8.29       6.25        0.32     5.21   0.334
  4                         18.73       0.00       0.00       8.18       6.81        0.18     2.98   0.364
  5                         18.73      16.26       0.00      10.01      16.56        0.28     3.57   0.473
  6                         18.73       0.00       0.00       8.28       6.27        0.31     5.07   0.335
  7                         18.73       0.00       0.00       8.05       5.80        9.28   118.82   0.310
  8                         18.73       0.00       0.00       8.26       6.40        0.27     4.45   0.342
  9                         18.73       6.32       0.00       9.13       9.45        0.36     5.12   0.377
  17                        18.73       0.00       0.00       8.24       6.52        0.24     3.93   0.348
  18                        18.73       0.00       0.00       8.26       6.38        0.28     4.54   0.341
  28                        18.73      22.00       0.00      10.57      18.16        0.48     5.67   0.446
  29                        18.73       9.31       0.00       9.25      11.35        0.27     3.43   0.405
  30                        18.73      24.97       0.00      10.50      24.21        0.23     2.82   0.554
  31                        18.73       0.00       0.00       8.23       6.55        0.23     3.82   0.350
  33                        18.73       0.00       0.00       7.95       7.93        0.07     1.13   0.424
  34                        18.73      14.16       0.00       9.88      14.83        0.31     3.97   0.451
  35                        18.73       0.00       0.00       8.21       6.69        0.20     3.33   0.357
  36                        18.73      13.44       0.00      10.05      12.04        0.71     9.14   0.374
  39                        18.73       0.00       0.00       8.23       6.59        0.22     3.69   0.352
  40                        18.73       3.52       0.00       8.76       8.07        0.32     4.77   0.363
  41                        18.73       0.00       0.00       8.12       7.11        0.14     2.26   0.380
  42                        18.73       0.00       0.00       8.16       6.95        0.16     2.61   0.371
  43                        18.73       0.00       0.00       7.70       8.90        0.03     0.53   0.475
  44                        18.73     199.92       0.00      16.06     176.14        0.65     8.48   0.806
  45                        18.73       0.00       0.00       7.99       7.75        0.08     1.31   0.414
  46                        18.73      11.26       0.00       9.54      12.93        0.28     3.60   0.431
  47                        18.73       0.00       0.00       8.00       7.67        0.09     1.39   0.410
  48                        18.73       5.38       0.00       8.79      10.23        0.16     2.33   0.424
  55                        18.73       8.05       0.00       8.89      12.92        0.11     1.47   0.482
  56                        18.73      12.37       0.00       9.65      13.54        0.29     3.69   0.436
  57                        18.73       0.00       0.00       8.28       6.26        0.31     5.13   0.334
  59                        18.73       0.00       0.00       7.94       7.97        0.07     1.09   0.426
  60                        18.73      17.49       0.00       9.58      20.51        0.11     1.37   0.566
  61                        18.73       0.00       0.00       8.43       5.32        0.96    15.02   0.284
  62                        18.73       0.00       0.00       8.43       5.28        1.00    15.70   0.282
  64                        18.73       0.00       0.00       8.02       7.59        0.09     1.49   0.405
  
  
  ****************************
  Subcatchment Washoff Summary
  ****************************
  
  ------------------------------------------------------------------------------------------
                                 COD         NH3-N            TN            TP            SS
  Subcatchment                    kg            kg            kg            kg            kg
  ------------------------------------------------------------------------------------------
  1                           45.688         0.000         0.000         0.000         0.000
  2                            0.000         0.000         0.000         0.000         0.000
  3                            0.000         0.000         0.000         0.000         0.000
  4                           30.889         0.000         0.000         0.000         0.000
  5                           83.349         0.000         0.000         0.000         0.000
  6                           50.133         0.000         0.000         0.000         0.000
  7                         1355.201         0.000         0.000         0.000         0.000
  8                           44.482         0.000         0.000         0.000         0.000
  9                           85.765         0.000         0.000         0.000         0.000
  17                          39.730         0.000         0.000         0.000         0.000
  18                          45.301         0.000         0.000         0.000         0.000
  28                         177.144         0.000         0.000         0.000         0.000
  29                          82.648         0.000         0.000         0.000         0.000
  30                          63.924         0.000         0.000         0.000         0.000
  31                          38.710         0.000         0.000         0.000         0.000
  33                          12.912         0.000         0.000         0.000         0.000
  34                          90.829         0.000         0.000         0.000         0.000
  35                          34.200         0.000         0.000         0.000         0.000
  36                         218.464         0.000         0.000         0.000         0.000
  39                          37.510         0.000         0.000         0.000         0.000
  40                          66.856         0.000         0.000         0.000         0.000
  41                          24.137         0.000         0.000         0.000         0.000
  42                          27.384         0.000         0.000         0.000         0.000
  43                           6.458         0.000         0.000         0.000         0.000
  44                         205.327         0.000         0.000         0.000         0.000
  45                          14.730         0.000         0.000         0.000         0.000
  46                          83.207         0.000         0.000         0.000         0.000
  47                          15.615         0.000         0.000         0.000         0.000
  48                          39.826         0.000         0.000         0.000         0.000
  55                          29.683         0.000         0.000         0.000         0.000
  56                          89.108         0.000         0.000         0.000         0.000
  57                          50.609         0.000         0.000         0.000         0.000
  59                          12.563         0.000         0.000         0.000         0.000
  60                          31.529         0.000         0.000         0.000         0.000
  61                         137.085         0.000         0.000         0.000         0.000
  62                         142.893         0.000         0.000         0.000         0.000
  64                          16.594         0.000         0.000         0.000         0.000
  ------------------------------------------------------------------------------------------
  System                    3530.484         0.000         0.000         0.000         0.000
  
  
  ******************
  Node Depth Summary
  ******************
  
  ---------------------------------------------------------------------------------
                                 Average  Maximum  Maximum  Time of Max    Reported
                                   Depth    Depth      HGL   Occurrence   Max Depth
  Node                 Type       Meters   Meters   Meters  days hr:min      Meters
  ---------------------------------------------------------------------------------
  WS01000070           JUNCTION     0.00     0.00     0.00     0  00:00        0.00
  WS01000323           JUNCTION     0.00     0.00     0.00     0  00:00        0.00
  WS01000533           JUNCTION     0.00     0.00     6.86     0  00:00        0.00
  WS01005172           JUNCTION     0.00     0.00     0.00     0  00:00        0.00
  WS01005181           JUNCTION     0.00     0.00     0.00     0  00:00        0.00
  WS01009841           JUNCTION     0.00     0.00     0.00     0  00:00        0.00
  WS02000078           JUNCTION     0.00     0.00     0.00     0  00:00        0.00
  WS02000112           JUNCTION     0.00     0.00     0.00     0  00:00        0.00
  WS02000136           JUNCTION     0.00     0.00     0.00     0  00:00        0.00
  WS02001211           JUNCTION     0.43     0.47     5.31     0  02:16        0.47
  WS02001212           JUNCTION     0.37     0.44     5.24     0  02:15        0.44
  WS02001213           JUNCTION     0.47     0.55     5.25     0  02:19        0.55
  WS02003059           JUNCTION     0.45     0.57     5.22     0  02:14        0.56
  WS02003060           JUNCTION     0.51     0.66     5.21     0  02:17        0.65
  WS02003066           JUNCTION     0.21     0.32     5.62     0  02:59        0.31
  WS02003067           JUNCTION     0.36     0.54     5.86     0  02:34        0.53
  WS02003071           JUNCTION     0.57     0.72     5.12     0  03:06        0.72
  WS02003072           JUNCTION     0.48     0.66     5.03     0  03:05        0.63
  WS02003073           JUNCTION     0.55     0.80     5.04     0  03:04        0.79
  WS02003076           JUNCTION     0.51     0.75     4.98     0  03:04        0.68
  WS02003077           JUNCTION     0.08     0.12     5.13     0  02:05        0.12
  WS02003078           JUNCTION     0.05     0.08     6.98     0  02:05        0.08
  WS02003079           JUNCTION     0.16     0.26     7.17     0  02:05        0.26
  WS02003093           JUNCTION     0.04     0.07     7.41     0  02:02        0.07
  WS02003094           JUNCTION     0.14     0.19     7.41     0  02:01        0.19
  WS02003098           JUNCTION     0.09     0.13     7.30     0  02:03        0.13
  WS02003099           JUNCTION     0.17     0.26     7.30     0  02:04        0.26
  WS02003102           JUNCTION     0.16     0.25     7.28     0  02:03        0.25
  WS02003103           JUNCTION     0.18     0.27     7.24     0  02:04        0.27
  WS02003104           JUNCTION     0.17     0.27     7.23     0  02:05        0.27
  WS02003106           JUNCTION     0.18     0.27     7.20     0  02:05        0.27
  WS02004050           JUNCTION     0.35     0.45     4.67     0  02:16        0.45
  WS02004053           JUNCTION     0.00     0.00     0.00     0  00:00        0.00
  WS02004136           JUNCTION     0.17     0.18     6.91     0  01:14        0.18
  WS02004139           JUNCTION     0.35     0.38     5.34     0  02:21        0.38
  WS02004401           JUNCTION     0.36     0.53     6.53     0  02:14        0.53
  WS02004402           JUNCTION     0.37     0.54     6.50     0  02:13        0.54
  WS02004403           JUNCTION     0.36     0.54     6.47     0  02:13        0.54
  WS02004404           JUNCTION     0.44     0.63     6.48     0  02:13        0.63
  WS02004405           JUNCTION     0.44     0.63     6.47     0  02:13        0.63
  WS02004406           JUNCTION     0.42     0.60     6.43     0  02:13        0.60
  WS02004407           JUNCTION     0.40     0.57     6.37     0  02:13        0.57
  WS02004409           JUNCTION     0.39     0.55     6.32     0  02:13        0.55
  WS02004410           JUNCTION     0.38     0.53     6.25     0  02:13        0.53
  WS02004411           JUNCTION     0.35     0.50     6.18     0  02:13        0.50
  WS02004412           JUNCTION     0.30     0.44     6.08     0  02:12        0.44
  WS02004413           JUNCTION     0.32     0.46     5.93     0  02:13        0.46
  WS02004997           JUNCTION     5.68     6.68     8.29     0  02:00        6.68
  WS02005192           JUNCTION     0.17     0.28     8.15     0  01:48        0.28
  WS02005193           JUNCTION     0.19     0.29     8.11     0  02:00        0.29
  WS02005196           JUNCTION     0.18     0.28     8.13     0  01:48        0.27
  WS02006109           JUNCTION     0.40     0.57     7.19     0  02:14        0.57
  WS02006110           JUNCTION     0.37     0.52     7.12     0  02:13        0.52
  WS02006111           JUNCTION     0.20     0.30     6.88     0  02:12        0.30
  WS02006112           JUNCTION     0.38     0.54     6.66     0  02:13        0.54
  WS02006113           JUNCTION     0.31     0.44     7.03     0  02:11        0.44
  WS02006115           JUNCTION     0.33     0.50     6.60     0  02:13        0.50
  WS02006116           JUNCTION     0.36     0.53     6.57     0  02:13        0.53
  WS02006183           JUNCTION     0.00     0.00     0.00     0  00:00        0.00
  WS02006228           JUNCTION     0.40     0.58     7.23     0  02:14        0.58
  WS02006229           JUNCTION     0.37     0.55     7.24     0  02:14        0.55
  WS02006230           JUNCTION     0.35     0.53     7.28     0  02:11        0.53
  WS02006231           JUNCTION     0.26     0.41     7.31     0  02:07        0.41
  WS02006232           JUNCTION     0.24     0.37     7.40     0  02:03        0.37
  WS02006234           JUNCTION     0.24     0.36     7.52     0  02:04        0.36
  WS02006235           JUNCTION     0.28     0.41     7.58     0  02:03        0.41
  WS02006238           JUNCTION     0.29     0.42     7.60     0  02:03        0.42
  WS02006239           JUNCTION     0.31     0.45     7.66     0  02:03        0.45
  WS02006242           JUNCTION     0.33     0.48     7.78     0  02:02        0.48
  WS02006240           JUNCTION     0.27     0.42     7.71     0  02:03        0.42
  WS02006243           JUNCTION     0.26     0.41     7.83     0  02:02        0.41
  WS02006245           JUNCTION     0.27     0.41     7.90     0  02:02        0.41
  WS02006247           JUNCTION     0.29     0.44     7.95     0  02:01        0.44
  WS02006248           JUNCTION     0.24     0.38     7.97     0  02:00        0.38
  WS02006249           JUNCTION     0.27     0.42     8.02     0  02:00        0.42
  WS02006251           JUNCTION     0.25     0.41     8.08     0  02:00        0.41
  WS02006253           JUNCTION     0.19     0.31     8.11     0  01:48        0.31
  WS02618401           JUNCTION     0.00     0.00     0.00     0  00:00        0.00
  WS8802               JUNCTION     0.00     0.00     4.38     0  00:00        0.00
  WSA1649              JUNCTION     0.00     0.00     0.00     0  00:00        0.00
  WSF200               JUNCTION     0.20     0.31     5.41     0  02:52        0.29
  XR-Inflow            JUNCTION     5.53     6.55     8.36     0  01:44        6.55
  WS02004114           JUNCTION     5.65     6.65     8.25     0  02:00        6.65
  outfall-2            OUTFALL      0.00     0.00     7.00     0  00:00        0.00
  outfall-5            OUTFALL      0.00     0.00     7.67     0  00:00        0.00
  outfall-14           OUTFALL      0.00     0.00     7.66     0  00:00        0.00
  outfall-16           OUTFALL      0.00     0.00     8.39     0  00:00        0.00
  12                   OUTFALL      0.34     0.44     0.44     0  02:16        0.44
  XR-storage           STORAGE      6.73     7.72     8.22     0  01:36        7.72
  CC-storage           STORAGE      3.55     5.03     8.21     0  03:03        5.02
  JK-storage           STORAGE      4.04     4.80     7.80     0  01:37        4.80
  
  
  *******************
  Node Inflow Summary
  *******************
  
  -------------------------------------------------------------------------------------------------
                                  Maximum  Maximum                  Lateral       Total        Flow
                                  Lateral    Total  Time of Max      Inflow      Inflow     Balance
                                   Inflow   Inflow   Occurrence      Volume      Volume       Error
  Node                 Type           MLD      MLD  days hr:min    10^6 ltr    10^6 ltr     Percent
  -------------------------------------------------------------------------------------------------
  WS01000070           JUNCTION      0.00     0.00     0  00:00           0           0       0.000 ltr
  WS01000323           JUNCTION      0.00     0.00     0  00:00           0           0       0.000 ltr
  WS01000533           JUNCTION      0.00     0.00     0  00:00           0           0       0.000 ltr
  WS01005172           JUNCTION      0.00     0.00     0  00:00           0           0       0.000 ltr
  WS01005181           JUNCTION      0.00     0.00     0  00:00           0           0       0.000 ltr
  WS01009841           JUNCTION      0.00     0.00     0  00:00           0           0       0.000 ltr
  WS02000078           JUNCTION      0.00     0.00     0  00:00           0           0       0.000 ltr
  WS02000112           JUNCTION      0.00     0.00     0  00:00           0           0       0.000 ltr
  WS02000136           JUNCTION      0.00     0.00     0  00:00           0           0       0.000 ltr
  WS02001211           JUNCTION      0.25    33.82     0  01:24      0.0407        4.91       0.524
  WS02001212           JUNCTION      0.21    34.39     0  03:11      0.0346        4.92       0.292
  WS02001213           JUNCTION      0.30    35.18     0  03:11      0.0489        4.95       0.398
  WS02003059           JUNCTION      0.23    36.17     0  03:10      0.0378        4.97       0.472
  WS02003060           JUNCTION      0.16   100.00     0  02:35      0.0252        9.89       0.352
  WS02003066           JUNCTION      0.08    76.30     0  02:34      0.0122         4.9       0.106
  WS02003067           JUNCTION      0.26    63.05     0  02:13      0.0395         4.9       0.210
  WS02003071           JUNCTION      0.35    98.74     0  02:17      0.0538        9.91       0.370
  WS02003072           JUNCTION      0.24   100.99     0  02:21      0.0382        9.91       0.236
  WS02003073           JUNCTION      0.07   113.00     0  02:20     0.00978        10.6       0.197
  WS02003076           JUNCTION      0.72   126.10     0  02:16        0.12        10.7       0.114
  WS02003077           JUNCTION      0.04     9.76     0  02:05      0.0059       0.668       0.104
  WS02003078           JUNCTION      0.03     9.73     0  02:05     0.00419       0.662      -0.006
  WS02003079           JUNCTION      0.04     9.71     0  02:05     0.00561       0.659       0.192
  WS02003093           JUNCTION      0.02     0.08     0  01:50     0.00306     0.00342       0.654
  WS02003094           JUNCTION      5.17     5.19     0  02:01       0.366       0.369       0.756
  WS02003098           JUNCTION      0.02     5.20     0  02:02     0.00293       0.369       0.464
  WS02003099           JUNCTION      0.07     5.26     0  02:03      0.0109       0.379       0.962
  WS02003102           JUNCTION      4.48     9.64     0  02:02       0.275        0.65       0.455
  WS02003103           JUNCTION      0.02     9.64     0  02:03     0.00239        0.65       0.335
  WS02003104           JUNCTION      0.02     9.64     0  02:04     0.00302        0.65       0.282
  WS02003106           JUNCTION      0.05     9.68     0  02:04     0.00727       0.656       0.344
  WS02004050           JUNCTION      0.72   131.29     0  02:11       0.119        10.8       0.557
  WS02004053           JUNCTION      0.00     0.00     0  00:00           0           0       0.000 ltr
  WS02004136           JUNCTION      0.44    32.92     0  01:14      0.0703        4.82       0.067
  WS02004139           JUNCTION      0.38    33.58     0  01:14      0.0619        4.88       0.368
  WS02004401           JUNCTION      0.05    45.09     0  02:14     0.00897        3.42       0.186
  WS02004402           JUNCTION      0.22    45.29     0  02:14      0.0335        3.45       0.172
  WS02004403           JUNCTION      0.23    45.49     0  02:14      0.0349        3.48       0.143
  WS02004404           JUNCTION      0.24    45.71     0  02:15      0.0365        3.51       0.145
  WS02004405           JUNCTION      3.05    48.34     0  02:13       0.193         3.7       0.209
  WS02004406           JUNCTION      5.78    53.82     0  02:14       0.498        4.19       0.284
  WS02004407           JUNCTION      0.11    53.92     0  02:14      0.0171        4.19       0.253
  WS02004409           JUNCTION      3.77    57.67     0  02:14       0.315         4.5       0.210
  WS02004410           JUNCTION      0.15    57.80     0  02:15      0.0226        4.51       0.213
  WS02004411           JUNCTION      0.25    58.03     0  02:15      0.0379        4.54       0.185
  WS02004412           JUNCTION      5.16    62.61     0  02:13       0.324        4.85       0.140
  WS02004413           JUNCTION      0.11    62.72     0  02:13      0.0172        4.86       0.134
  WS02004997           JUNCTION      0.42    63.57     0  02:00      0.0693        7.92       0.492
  WS02005192           JUNCTION      5.24     5.24     0  01:59        0.33       0.332       0.192
  WS02005193           JUNCTION      0.09     6.85     0  01:46      0.0146       0.381       0.392
  WS02005196           JUNCTION      0.12     5.87     0  01:48       0.019       0.356       0.419
  WS02006109           JUNCTION      0.08    39.54     0  02:16      0.0135           3       0.442
  WS02006110           JUNCTION      0.08    39.62     0  02:17      0.0132           3       0.409
  WS02006111           JUNCTION      0.24    44.61     0  02:12      0.0366        3.36       0.121
  WS02006112           JUNCTION      0.18    44.76     0  02:12      0.0273        3.38       0.235
  WS02006113           JUNCTION      5.38    44.40     0  02:11       0.345        3.33       0.247
  WS02006115           JUNCTION      0.08    44.84     0  02:12      0.0134        3.39       0.212
  WS02006116           JUNCTION      0.24    45.04     0  02:13       0.036        3.42       0.199
  WS02006183           JUNCTION      0.00     0.00     0  00:00           0           0       0.000 ltr
  WS02006228           JUNCTION      8.64    39.46     0  02:17       0.679           3       0.340
  WS02006229           JUNCTION      0.13    32.22     0  02:04        0.02        2.33       0.369
  WS02006230           JUNCTION      0.07    32.15     0  02:03      0.0116        2.32       0.425
  WS02006231           JUNCTION      0.13    32.10     0  02:02      0.0205        2.31       0.286
  WS02006232           JUNCTION      3.74    31.99     0  02:02       0.236         2.3       0.274
  WS02006234           JUNCTION      0.14    28.35     0  02:04      0.0216        2.07       0.292
  WS02006235           JUNCTION      0.14    28.23     0  02:03      0.0223        2.05       0.185
  WS02006238           JUNCTION      0.15    28.10     0  02:03      0.0235        2.03       0.259
  WS02006239           JUNCTION      0.11    27.97     0  02:03      0.0174        2.02       0.435
  WS02006242           JUNCTION      0.08    27.81     0  02:02      0.0129        2.01       0.506
  WS02006240           JUNCTION      0.06    27.87     0  02:02     0.00992        2.01       0.408
  WS02006243           JUNCTION      0.17    27.74     0  02:02      0.0269           2       0.313
  WS02006245           JUNCTION      0.07    27.58     0  02:01      0.0113        1.98       0.236
  WS02006247           JUNCTION      3.31    27.52     0  02:00       0.287        1.97       0.230
  WS02006248           JUNCTION      0.12    24.66     0  02:00      0.0192        1.69       0.136
  WS02006249           JUNCTION      0.19    24.55     0  02:00      0.0286        1.67       0.264
  WS02006251           JUNCTION      1.53    24.38     0  01:59       0.117        1.65       0.180
  WS02006253           JUNCTION      0.11    22.84     0  01:59      0.0173        1.55       0.041
  WS02618401           JUNCTION      0.00     0.00     0  00:00           0           0       0.000 ltr
  WS8802               JUNCTION      0.00     0.00     0  00:00           0           0       0.000 ltr
  WSA1649              JUNCTION      0.00     0.00     0  00:00           0           0       0.000 ltr
  WSF200               JUNCTION      0.14    67.50     0  02:35      0.0216        4.92      -0.020
  XR-Inflow            JUNCTION    137.91   137.91     0  02:48        12.6        12.6       0.186
  WS02004114           JUNCTION      0.57    64.13     0  02:00      0.0916        7.98       0.302
  outfall-2            OUTFALL       0.00     0.00     0  00:00           0           0       0.000 ltr
  outfall-5            OUTFALL       0.00     0.00     0  00:00           0           0       0.000 ltr
  outfall-14           OUTFALL       0.00     0.00     0  00:00           0           0       0.000 ltr
  outfall-16           OUTFALL       0.00     0.00     0  00:00           0           0       0.000 ltr
  12                   OUTFALL       0.00   112.30     0  02:16           0        10.7       0.000
  XR-storage           STORAGE       0.00    64.13     0  02:00           0        7.95       0.585
  CC-storage           STORAGE      16.79    16.79     0  02:00        1.24        1.24       0.001
  JK-storage           STORAGE      16.71    16.71     0  02:00        1.18        1.18      -0.002
  
  
  **********************
  Node Surcharge Summary
  **********************
  
  Surcharging occurs when water rises above the top of the highest conduit.
  ---------------------------------------------------------------------
                                               Max. Height   Min. Depth
                                   Hours       Above Crown    Below Rim
  Node                 Type      Surcharged         Meters       Meters
  ---------------------------------------------------------------------
  WS01000070           JUNCTION        4.00          0.000        0.000
  WS01000323           JUNCTION        4.00          0.000        0.000
  WS01000533           JUNCTION        4.00          0.000        2.147
  WS01005172           JUNCTION        4.00          0.000        0.000
  WS01005181           JUNCTION        4.00          0.000        0.000
  WS01009841           JUNCTION        4.00          0.000        0.000
  WS02000078           JUNCTION        4.00          0.000        0.000
  WS02000112           JUNCTION        4.00          0.000        0.000
  WS02000136           JUNCTION        4.00          0.000        0.000
  WS02004053           JUNCTION        4.00          0.000        0.000
  WS02004997           JUNCTION        3.88          5.784        0.216
  WS02006183           JUNCTION        4.00          0.000        0.000
  WS02618401           JUNCTION        4.00          0.000        0.000
  WS8802               JUNCTION        4.00          0.000        4.942
  WSA1649              JUNCTION        4.00          0.000        0.000
  XR-Inflow            JUNCTION        3.87          5.650        0.000
  WS02004114           JUNCTION        3.88          5.748        0.767
  
  
  *********************
  Node Flooding Summary
  *********************
  
  Flooding refers to all water that overflows a node, whether it ponds or not.
  --------------------------------------------------------------------------
                                                             Total   Maximum
                                 Maximum   Time of Max       Flood    Ponded
                        Hours       Rate    Occurrence      Volume     Depth
  Node                 Flooded       MLD   days hr:min    10^6 ltr    Meters
  --------------------------------------------------------------------------
  XR-Inflow               2.26     74.76      0  02:48       4.725     0.000
  XR-storage              2.39     31.65      0  02:00       3.088     0.000
  JK-storage              2.38     16.70      0  02:00       1.043     0.000
  
  
  **********************
  Storage Volume Summary
  **********************
  
  --------------------------------------------------------------------------------------------------
                         Average     Avg  Evap Exfil       Maximum     Max    Time of Max    Maximum
                          Volume    Pcnt  Pcnt  Pcnt        Volume    Pcnt     Occurrence    Outflow
  Storage Unit           1000 m3    Full  Loss  Loss       1000 m3    Full    days hr:min        MLD
  --------------------------------------------------------------------------------------------------
  XR-storage               0.055      87     0     0         0.063     100       0  01:36      32.48
  CC-storage               0.100      63     0     0         0.142      89       0  03:03      17.28
  JK-storage               0.114      84     0     0         0.136     100       0  01:37       0.00
  
  
  ***********************
  Outfall Loading Summary
  ***********************
  
  ---------------------------------------------------------------------------------------------------------------------------------
                         Flow       Avg       Max       Total         Total         Total         Total         Total         Total
                         Freq      Flow      Flow      Volume           COD         NH3-N            TN            TP            SS
  Outfall Node           Pcnt       MLD       MLD    10^6 ltr            kg            kg            kg            kg            kg
  ---------------------------------------------------------------------------------------------------------------------------------
  outfall-2              0.00      0.00      0.00       0.000         0.000         0.000         0.000         0.000         0.000
  outfall-5              0.00      0.00      0.00       0.000         0.000         0.000         0.000         0.000         0.000
  outfall-14             0.00      0.00      0.00       0.000         0.000         0.000         0.000         0.000         0.000
  outfall-16             0.00      0.00      0.00       0.000         0.000         0.000         0.000         0.000         0.000
  12                    99.98     74.50    112.30      10.708      1887.627         0.000         0.000         0.000         0.000
  ---------------------------------------------------------------------------------------------------------------------------------
  System                20.00     74.50    112.30      10.708      1887.627         0.000         0.000         0.000         0.000
  
  
  ********************
  Link Flow Summary
  ********************
  
  -----------------------------------------------------------------------------
                                 Maximum  Time of Max   Maximum    Max/    Max/
                                  |Flow|   Occurrence   |Veloc|    Full    Full
  Link                 Type          MLD  days hr:min     m/sec    Flow   Depth
  -----------------------------------------------------------------------------
  WSL49                CONDUIT    125.38     0  02:16      2.32    1.56    0.63
  WSL1465              CONDUIT     37.56     0  02:43      1.66    0.34    0.61
  WSL1472              CONDUIT    100.76     0  02:21      1.84    1.15    0.57
  WSL1475              CONDUIT    130.58     0  02:11      2.80    1.39    0.41
  WSL1476              CONDUIT      9.76     0  02:05      0.51    0.05    0.56
  WSL1477              CONDUIT      9.70     0  02:05      2.08    0.38    0.28
  WSL1490              CONDUIT     34.18     0  03:11      1.39    0.55    0.45
  WSL1491              CONDUIT     34.90     0  03:11      1.45    0.20    0.49
  WSL1492              CONDUIT     35.95     0  03:10      1.39    0.55    0.56
  WSL1507              CONDUIT      0.06     0  01:50      0.11    0.00    0.17
  WSL1508              CONDUIT      5.19     0  02:02      0.82    0.15    0.20
  WSL1512              CONDUIT      5.20     0  02:03      0.56    0.04    0.19
  WSL1513              CONDUIT      5.27     0  02:05      0.45    0.31    0.32
  WSL1515              CONDUIT     76.23     0  02:34      2.56    0.74    0.35
  WSL1516              CONDUIT      9.73     0  02:05      3.79    0.03    0.16
  WSL1518              CONDUIT      9.62     0  02:03      0.78    0.19    0.33
  WSL1519              CONDUIT      9.64     0  02:04      0.75    0.24    0.34
  WSL1521              CONDUIT      9.67     0  02:05      0.78    0.28    0.33
  WSL1543              CONDUIT      9.63     0  02:04      0.74    0.30    0.34
  WSL1961              CONDUIT     33.19     0  01:14      3.07    0.07    0.28
  WSL1964              CONDUIT     33.57     0  01:24      1.38    0.18    0.35
  WSL2010              CONDUIT     45.29     0  02:14      1.25    0.58    0.54
  WSL2011              CONDUIT     45.50     0  02:15      1.12    0.29    0.58
  WSL2012              CONDUIT     45.71     0  02:15      1.02    0.70    0.63
  WSL2013              CONDUIT     48.34     0  02:13      1.10    1.20    0.62
  WSL2014              CONDUIT     53.82     0  02:14      1.30    0.86    0.59
  WSL2015              CONDUIT     53.92     0  02:14      1.37    0.72    0.56
  WSL2016              CONDUIT     57.67     0  02:15      1.53    0.66    0.54
  WSL2017              CONDUIT     57.81     0  02:15      1.65    0.70    0.51
  WSL2018              CONDUIT     62.62     0  02:13      2.11    0.37    0.45
  WSL2019              CONDUIT     62.82     0  02:13      1.91    0.37    0.50
  WSL2028              CONDUIT     45.10     0  02:14      1.25    0.48    0.54
  WSL2029              CONDUIT     58.04     0  02:15      1.87    0.73    0.47
  WSL2038              CONDUIT      5.75     0  01:48      0.67    0.29    0.45
  WSL2039              CONDUIT      9.71     0  02:31      1.40    0.50    0.50
  WSL2041              CONDUIT      6.28     0  02:32      0.89    0.31    0.47
  WSL2294              CONDUIT     39.54     0  02:17      1.27    1.33    0.68
  WSL2295              CONDUIT     39.63     0  02:17      1.47    1.78    0.60
  WSL2296              CONDUIT     44.61     0  02:12      1.96    0.25    0.52
  WSL2297              CONDUIT     44.76     0  02:12      1.29    0.86    0.52
  WSL2298              CONDUIT     44.40     0  02:12      2.28    2.04    0.46
  WSL2301              CONDUIT     44.84     0  02:13      1.31    0.41    0.51
  WSL2302              CONDUIT     45.04     0  02:14      1.27    0.55    0.53
  WSL2441              CONDUIT     39.46     0  02:16      1.19    1.01    0.72
  WSL2442              CONDUIT     32.10     0  02:04      1.27    0.82    0.77
  WSL2443              CONDUIT     32.08     0  02:03      1.46    0.50    0.67
  WSL2444              CONDUIT     31.98     0  02:02      1.73    0.51    0.56
  WSL2446              CONDUIT     28.36     0  02:04      1.65    0.49    0.52
  WSL2447              CONDUIT     28.23     0  02:04      1.51    1.45    0.55
  WSL2448              CONDUIT     28.10     0  02:03      1.37    0.79    0.59
  WSL2449              CONDUIT     27.96     0  02:03      1.29    0.98    0.62
  WSL2450              CONDUIT     27.86     0  02:03      1.28    0.58    0.62
  WSL2451              CONDUIT     27.81     0  02:02      1.23    1.81    0.64
  WSL2452              CONDUIT     27.73     0  02:02      1.29    0.53    0.64
  WSL2454              CONDUIT     27.58     0  02:02      1.46    0.64    0.58
  WSL2478              CONDUIT     27.52     0  02:01      1.35    0.97    0.60
  WSL2479              CONDUIT     24.65     0  02:00      1.25    0.47    0.59
  WSL2480              CONDUIT     24.54     0  02:00      1.28    1.14    0.57
  WSL2482              CONDUIT     24.37     0  02:00      1.24    0.63    0.59
  WSL2484              CONDUIT     23.06     0  01:48      1.81    0.32    0.51
  WSL2493              CONDUIT     32.18     0  02:04      1.06    0.54    0.71
  WSL2867              CONDUIT     67.38     0  02:35      3.57    0.14    0.25
  WSL2868              CONDUIT     64.73     0  02:35      1.88    0.12    0.39
  WSL348               CONDUIT     63.16     0  03:00      1.88    0.58    1.00
  WSL175               CONDUIT     63.56     0  02:00      2.29    2.14    1.00
  WSL1467              CONDUIT     98.43     0  02:17      1.74    0.52    0.57
  WSL1473              CONDUIT    104.00     0  02:20      1.95    0.43    0.59
  XRpipe               CONDUIT     64.13     0  02:00      2.54    0.16    1.00
  8                    CONDUIT      0.00     0  00:00      0.00    0.00    0.00
  19                   CONDUIT      0.00     0  00:00      0.00    0.00    0.00
  17                   CONDUIT      0.00     0  00:00      0.00    0.00    0.00
  4                    CONDUIT      0.00     0  00:00      0.00    0.00    0.00
  2                    CONDUIT    112.30     0  02:16      3.86    0.41    0.44
  XR-Pump-1            PUMP         8.12     0  00:08              1.00
  XR-Pump-3            PUMP         8.12     0  00:09              1.00
  XR-Pump-2            PUMP         8.12     0  00:09              1.00
  XR-Pump-4            PUMP         8.12     0  01:14              1.00
  CC-Pump-1            PUMP        17.28     0  01:28              1.00
  CC-Pump-2            PUMP         0.00     0  00:00              0.00
  JK-Pump-1            PUMP         0.00     0  00:00              0.00
  JK-Pump-2            PUMP         0.00     0  00:00              0.00
  
  
  ***************************
  Flow Classification Summary
  ***************************
  
  -------------------------------------------------------------------------------------
                      Adjusted    ---------- Fraction of Time in Flow Class ---------- 
                       /Actual         Up    Down  Sub   Sup   Up    Down  Norm  Inlet 
  Conduit               Length    Dry  Dry   Dry   Crit  Crit  Crit  Crit  Ltd   Ctrl  
  -------------------------------------------------------------------------------------
  WSL49                   1.00   0.00  0.00  0.00  0.99  0.01  0.00  0.00  0.00  0.00
  WSL1465                 1.00   0.00  0.00  0.00  1.00  0.00  0.00  0.00  0.10  0.00
  WSL1472                 1.00   0.00  0.00  0.00  1.00  0.00  0.00  0.00  0.00  0.00
  WSL1475                 1.00   0.00  0.00  0.00  0.17  0.83  0.00  0.00  0.01  0.00
  WSL1476                 1.00   0.00  0.00  0.00  1.00  0.00  0.00  0.00  1.00  0.00
  WSL1477                 1.00   0.00  0.00  0.00  0.01  0.99  0.00  0.00  0.58  0.00
  WSL1490                 1.00   0.00  0.00  0.00  1.00  0.00  0.00  0.00  0.00  0.00
  WSL1491                 1.00   0.00  0.00  0.00  1.00  0.00  0.00  0.00  0.04  0.00
  WSL1492                 1.00   0.00  0.00  0.00  1.00  0.00  0.00  0.00  0.00  0.00
  WSL1507                 1.00   0.00  0.00  0.00  1.00  0.00  0.00  0.00  0.50  0.00
  WSL1508                 1.00   0.00  0.00  0.00  1.00  0.00  0.00  0.00  0.00  0.00
  WSL1512                 1.00   0.00  0.00  0.00  1.00  0.00  0.00  0.00  1.00  0.00
  WSL1513                 1.00   0.00  0.00  0.00  1.00  0.00  0.00  0.00  0.00  0.00
  WSL1515                 1.00   0.00  0.00  0.00  0.09  0.91  0.00  0.00  0.06  0.00
  WSL1516                 1.00   0.00  0.00  0.00  0.00  1.00  0.00  0.00  1.00  0.00
  WSL1518                 1.00   0.00  0.00  0.00  1.00  0.00  0.00  0.00  0.44  0.00
  WSL1519                 1.00   0.00  0.00  0.00  1.00  0.00  0.00  0.00  0.31  0.00
  WSL1521                 1.00   0.00  0.00  0.00  1.00  0.00  0.00  0.00  0.02  0.00
  WSL1543                 1.00   0.00  0.00  0.00  1.00  0.00  0.00  0.00  0.02  0.00
  WSL1961                 1.00   0.00  0.00  0.00  0.01  0.99  0.00  0.00  0.98  0.00
  WSL1964                 1.00   0.00  0.00  0.00  1.00  0.00  0.00  0.00  0.05  0.00
  WSL2010                 1.00   0.00  0.00  0.00  1.00  0.00  0.00  0.00  0.03  0.00
  WSL2011                 1.00   0.00  0.00  0.00  1.00  0.00  0.00  0.00  0.27  0.00
  WSL2012                 1.00   0.00  0.00  0.00  1.00  0.00  0.00  0.00  0.00  0.00
  WSL2013                 1.00   0.00  0.00  0.00  1.00  0.00  0.00  0.00  0.00  0.00
  WSL2014                 1.00   0.00  0.00  0.00  1.00  0.00  0.00  0.00  0.00  0.00
  WSL2015                 1.00   0.00  0.00  0.00  1.00  0.00  0.00  0.00  0.02  0.00
  WSL2016                 1.00   0.00  0.00  0.00  1.00  0.00  0.00  0.00  0.01  0.00
  WSL2017                 1.00   0.00  0.00  0.00  1.00  0.00  0.00  0.00  0.04  0.00
  WSL2018                 1.00   0.00  0.00  0.00  0.01  0.99  0.00  0.00  0.07  0.00
  WSL2019                 1.00   0.00  0.00  0.00  0.65  0.35  0.00  0.00  0.11  0.00
  WSL2028                 1.00   0.00  0.00  0.00  1.00  0.00  0.00  0.00  0.06  0.00
  WSL2029                 1.00   0.00  0.00  0.00  0.52  0.48  0.00  0.00  0.00  0.00
  WSL2038                 1.00   0.00  0.00  0.00  1.00  0.00  0.00  0.00  0.02  0.00
  WSL2039                 1.00   0.00  0.00  0.00  0.86  0.14  0.00  0.00  0.01  0.00
  WSL2041                 1.00   0.00  0.00  0.00  1.00  0.00  0.00  0.00  0.29  0.00
  WSL2294                 1.00   0.00  0.00  0.00  1.00  0.00  0.00  0.00  0.00  0.00
  WSL2295                 1.00   0.00  0.00  0.00  1.00  0.00  0.00  0.00  0.00  0.00
  WSL2296                 1.00   0.00  0.00  0.00  0.19  0.81  0.00  0.00  0.60  0.00
  WSL2297                 1.00   0.00  0.00  0.00  1.00  0.00  0.00  0.00  0.00  0.00
  WSL2298                 1.00   0.00  0.00  0.00  0.05  0.95  0.00  0.00  0.00  0.00
  WSL2301                 1.00   0.00  0.00  0.00  1.00  0.00  0.00  0.00  0.09  0.00
  WSL2302                 1.00   0.00  0.00  0.00  1.00  0.00  0.00  0.00  0.07  0.00
  WSL2441                 1.00   0.00  0.00  0.00  1.00  0.00  0.00  0.00  0.01  0.00
  WSL2442                 1.00   0.00  0.00  0.00  1.00  0.00  0.00  0.00  0.20  0.00
  WSL2443                 1.00   0.00  0.00  0.00  1.00  0.00  0.00  0.00  0.44  0.00
  WSL2444                 1.00   0.00  0.00  0.00  0.33  0.67  0.00  0.00  0.35  0.00
  WSL2446                 1.00   0.00  0.00  0.00  0.43  0.57  0.00  0.00  0.15  0.00
  WSL2447                 1.00   0.00  0.00  0.00  1.00  0.00  0.00  0.00  0.00  0.00
  WSL2448                 1.00   0.00  0.00  0.00  1.00  0.00  0.00  0.00  0.02  0.00
  WSL2449                 1.00   0.00  0.00  0.00  1.00  0.00  0.00  0.00  0.03  0.00
  WSL2450                 1.00   0.00  0.00  0.00  1.00  0.00  0.00  0.00  0.38  0.00
  WSL2451                 1.00   0.00  0.00  0.00  1.00  0.00  0.00  0.00  0.00  0.00
  WSL2452                 1.00   0.00  0.00  0.00  1.00  0.00  0.00  0.00  0.49  0.00
  WSL2454                 1.00   0.00  0.00  0.00  1.00  0.00  0.00  0.00  0.07  0.00
  WSL2478                 1.00   0.00  0.00  0.00  1.00  0.00  0.00  0.00  0.00  0.00
  WSL2479                 1.00   0.00  0.00  0.00  1.00  0.00  0.00  0.00  0.43  0.00
  WSL2480                 1.00   0.00  0.00  0.00  1.00  0.00  0.00  0.00  0.00  0.00
  WSL2482                 1.00   0.00  0.00  0.00  1.00  0.00  0.00  0.00  0.51  0.00
  WSL2484                 1.00   0.00  0.00  0.00  0.98  0.02  0.00  0.00  0.57  0.00
  WSL2493                 1.00   0.00  0.00  0.00  1.00  0.00  0.00  0.00  0.05  0.00
  WSL2867                 1.00   0.00  0.00  0.00  0.00  1.00  0.00  0.00  0.21  0.00
  WSL2868                 1.00   0.00  0.00  0.00  0.98  0.02  0.00  0.00  0.75  0.00
  WSL348                  1.00   0.00  0.00  0.00  1.00  0.00  0.00  0.00  0.01  0.00
  WSL175                  1.00   0.00  0.00  0.00  1.00  0.00  0.00  0.00  0.00  0.00
  WSL1467                 1.00   0.00  0.00  0.00  1.00  0.00  0.00  0.00  0.06  0.00
  WSL1473                 1.00   0.00  0.00  0.00  1.00  0.00  0.00  0.00  0.05  0.00
  XRpipe                  1.00   0.00  0.00  0.00  1.00  0.00  0.00  0.00  0.01  0.00
  8                       1.00   1.00  0.00  0.00  0.00  0.00  0.00  0.00  0.00  0.00
  19                      1.00   1.00  0.00  0.00  0.00  0.00  0.00  0.00  0.00  0.00
  17                      1.00   1.00  0.00  0.00  0.00  0.00  0.00  0.00  0.00  0.00
  4                       1.00   1.00  0.00  0.00  0.00  0.00  0.00  0.00  0.00  0.00
  2                       1.00   0.00  0.00  0.00  0.00  1.00  0.00  0.00  0.19  0.00
  
  
  *************************
  Conduit Surcharge Summary
  *************************
  
  ----------------------------------------------------------------------------
                                                           Hours        Hours 
                         --------- Hours Full --------   Above Full   Capacity
  Conduit                Both Ends  Upstream  Dnstream   Normal Flow   Limited
  ----------------------------------------------------------------------------
  WSL49                       0.01      0.01      0.01      1.49         0.01
  WSL1472                     0.01      0.01      0.01      0.95         0.01
  WSL1475                     0.01      0.01      0.01      1.04         0.01
  WSL2013                     0.01      0.01      0.01      0.96         0.01
  WSL2294                     0.01      0.01      0.01      1.18         0.01
  WSL2295                     0.01      0.01      0.01      1.61         0.01
  WSL2298                     0.01      0.01      0.01      1.76         0.01
  WSL2441                     0.01      0.01      0.01      0.39         0.01
  WSL2447                     0.01      0.01      0.01      1.38         0.01
  WSL2451                     0.01      0.01      0.01      1.56         0.01
  WSL2480                     0.01      0.01      0.01      0.97         0.01
  WSL348                      3.87      3.87      3.88      0.01         0.01
  WSL175                      3.88      3.88      3.88      2.65         2.73
  XRpipe                      3.88      3.88      3.96      0.01         0.01
  
  
  ***************
  Pumping Summary
  ***************
  
  ---------------------------------------------------------------------------------------------------------
                                                  Min       Avg       Max     Total     Power    % Time Off
                        Percent   Number of      Flow      Flow      Flow    Volume     Usage    Pump Curve
  Pump                 Utilized   Start-Ups       MLD       MLD       MLD  10^6 ltr     Kw-hr    Low   High
  ---------------------------------------------------------------------------------------------------------
  XR-Pump-1               96.32           1      0.00      8.12      8.12     1.303      6.36    0.0    0.0
  XR-Pump-3               91.52          17      0.00      8.12      8.12     1.239      5.88    0.0    0.0
  XR-Pump-2               96.18           1      0.00      8.12      8.12     1.301      6.35    0.0    0.0
  XR-Pump-4               67.39           7      0.00      8.12      8.12     0.912      3.44    0.0    0.0
  CC-Pump-1               40.11           6      0.00     17.28     17.28     1.155      3.01    0.0    0.0
  CC-Pump-2                0.00           0      0.00      0.00      0.00     0.000      0.00    0.0    0.0
  JK-Pump-1                0.00           0      0.00      0.00      0.00     0.000      0.00    0.0    0.0
  JK-Pump-2                0.00           0      0.00      0.00      0.00     0.000      0.00    0.0    0.0
  
  
  ***************************
  Link Pollutant Load Summary
  ***************************
  
  ------------------------------------------------------------------------------------------
                                 COD         NH3-N            TN            TP            SS
  Link                            kg            kg            kg            kg            kg
  ------------------------------------------------------------------------------------------
  WSL49                     1856.401         0.000         0.000         0.000         0.000
  WSL1465                    749.796         0.000         0.000         0.000         0.000
  WSL1472                   1715.715         0.000         0.000         0.000         0.000
  WSL1475                   1875.115         0.000         0.000         0.000         0.000
  WSL1476                    138.488         0.000         0.000         0.000         0.000
  WSL1477                    136.484         0.000         0.000         0.000         0.000
  WSL1490                    736.019         0.000         0.000         0.000         0.000
  WSL1491                    739.957         0.000         0.000         0.000         0.000
  WSL1492                    746.258         0.000         0.000         0.000         0.000
  WSL1507                      0.731         0.000         0.000         0.000         0.000
  WSL1508                     87.593         0.000         0.000         0.000         0.000
  WSL1512                     87.907         0.000         0.000         0.000         0.000
  WSL1513                     89.265         0.000         0.000         0.000         0.000
  WSL1515                    957.069         0.000         0.000         0.000         0.000
  WSL1516                    137.160         0.000         0.000         0.000         0.000
  WSL1518                    134.156         0.000         0.000         0.000         0.000
  WSL1519                    134.663         0.000         0.000         0.000         0.000
  WSL1521                    135.643         0.000         0.000         0.000         0.000
  WSL1543                    134.327         0.000         0.000         0.000         0.000
  WSL1961                    723.517         0.000         0.000         0.000         0.000
  WSL1964                    732.194         0.000         0.000         0.000         0.000
  WSL2010                    583.484         0.000         0.000         0.000         0.000
  WSL2011                    588.525         0.000         0.000         0.000         0.000
  WSL2012                    593.812         0.000         0.000         0.000         0.000
  WSL2013                    625.280         0.000         0.000         0.000         0.000
  WSL2014                    803.589         0.000         0.000         0.000         0.000
  WSL2015                    804.611         0.000         0.000         0.000         0.000
  WSL2016                    891.998         0.000         0.000         0.000         0.000
  WSL2017                    894.118         0.000         0.000         0.000         0.000
  WSL2018                    950.468         0.000         0.000         0.000         0.000
  WSL2019                    952.287         0.000         0.000         0.000         0.000
  WSL2028                    578.908         0.000         0.000         0.000         0.000
  WSL2029                    899.011         0.000         0.000         0.000         0.000
  WSL2038                     53.948         0.000         0.000         0.000         0.000
  WSL2039                     62.467         0.000         0.000         0.000         0.000
  WSL2041                     58.176         0.000         0.000         0.000         0.000
  WSL2294                    560.827         0.000         0.000         0.000         0.000
  WSL2295                    561.004         0.000         0.000         0.000         0.000
  WSL2296                    569.474         0.000         0.000         0.000         0.000
  WSL2297                    572.553         0.000         0.000         0.000         0.000
  WSL2298                    564.094         0.000         0.000         0.000         0.000
  WSL2301                    573.633         0.000         0.000         0.000         0.000
  WSL2302                    578.450         0.000         0.000         0.000         0.000
  WSL2441                    560.674         0.000         0.000         0.000         0.000
  WSL2442                    350.158         0.000         0.000         0.000         0.000
  WSL2443                    349.324         0.000         0.000         0.000         0.000
  WSL2444                    346.585         0.000         0.000         0.000         0.000
  WSL2446                    344.984         0.000         0.000         0.000         0.000
  WSL2447                    342.057         0.000         0.000         0.000         0.000
  WSL2448                    338.724         0.000         0.000         0.000         0.000
  WSL2449                    335.451         0.000         0.000         0.000         0.000
  WSL2450                    333.510         0.000         0.000         0.000         0.000
  WSL2451                    332.755         0.000         0.000         0.000         0.000
  WSL2452                    331.753         0.000         0.000         0.000         0.000
  WSL2454                    327.962         0.000         0.000         0.000         0.000
  WSL2478                    326.623         0.000         0.000         0.000         0.000
  WSL2479                    277.408         0.000         0.000         0.000         0.000
  WSL2480                    274.379         0.000         0.000         0.000         0.000
  WSL2482                    270.131         0.000         0.000         0.000         0.000
  WSL2484                    239.050         0.000         0.000         0.000         0.000
  WSL2493                    352.501         0.000         0.000         0.000         0.000
  WSL2867                    958.220         0.000         0.000         0.000         0.000
  WSL2868                    962.170         0.000         0.000         0.000         0.000
  WSL348                    1160.253         0.000         0.000         0.000         0.000
  WSL175                    1167.280         0.000         0.000         0.000         0.000
  WSL1467                   1711.693         0.000         0.000         0.000         0.000
  WSL1473                   1718.908         0.000         0.000         0.000         0.000
  XRpipe                    1180.509         0.000         0.000         0.000         0.000
  8                            0.000         0.000         0.000         0.000         0.000
  19                           0.000         0.000         0.000         0.000         0.000
  17                           0.000         0.000         0.000         0.000         0.000
  4                            0.000         0.000         0.000         0.000         0.000
  2                         1887.627         0.000         0.000         0.000         0.000
  XR-Pump-1                  196.938         0.000         0.000         0.000         0.000
  XR-Pump-3                  186.109         0.000         0.000         0.000         0.000
  XR-Pump-2                  196.624         0.000         0.000         0.000         0.000
  XR-Pump-4                  131.980         0.000         0.000         0.000         0.000
  CC-Pump-1                  176.865         0.000         0.000         0.000         0.000
  CC-Pump-2                    0.000         0.000         0.000         0.000         0.000
  JK-Pump-1                    0.000         0.000         0.000         0.000         0.000
  JK-Pump-2                    0.000         0.000         0.000         0.000         0.000
  

  Analysis begun on:  Tue Mar 19 20:20:14 2019
  Analysis ended on:  Tue Mar 19 20:20:14 2019
  Total elapsed time: < 1 sec