
  EPA STORM WATER MANAGEMENT MODEL - VERSION 5.1 (Build 5.2.0.dev1)
  --------------------------------------------------------------

  
  *********************************************************
  NOTE: The summary statistics displayed in this report are
  based on results found at every computational time step,  
  not just on results from each reporting time step.
  *********************************************************
  
  ****************
  Analysis Options
  ****************
  Flow Units ............... MLD
  Process Models:
    Rainfall/Runoff ........ YES
    RDII ................... NO
    Snowmelt ............... NO
    Groundwater ............ NO
    Flow Routing ........... YES
    Ponding Allowed ........ NO
    Water Quality .......... YES
  Infiltration Method ...... GREEN_AMPT
  Flow Routing Method ...... DYNWAVE
  Starting Date ............ 08/28/2015 08:00:00
  Ending Date .............. 08/28/2015 12:00:00
  Antecedent Dry Days ...... 4.0
  Report Time Step ......... 00:01:00
  Wet Time Step ............ 00:01:00
  Dry Time Step ............ 00:01:00
  Routing Time Step ........ 5.00 sec
  Variable Time Step ....... YES
  Maximum Trials ........... 8
  Number of Threads ........ 1
  Head Tolerance ........... 0.001500 m
  
  
  **************************        Volume         Depth
  Runoff Quantity Continuity     hectare-m            mm
  **************************     ---------       -------
  Total Precipitation ......         8.247        29.238
  Evaporation Loss .........         0.000         0.000
  Infiltration Loss ........         3.266        11.578
  Surface Runoff ...........         2.671         9.469
  Final Storage ............         2.315         8.206
  Continuity Error (%) .....        -0.051
  
  
  **************************           COD         NH3-N            TN            TP            SS
  Runoff Quality Continuity             kg            kg            kg            kg            kg
  **************************    ----------    ----------    ----------    ----------    ----------
  Initial Buildup ..........     13074.240         0.000         0.000         0.000         0.000
  Surface Buildup ..........       104.581         0.000         0.000         0.000         0.000
  Wet Deposition ...........         0.000         0.000         0.000         0.000         0.000
  Sweeping Removal .........         0.000         0.000         0.000         0.000         0.000
  Infiltration Loss ........       324.499         0.000         0.000         0.000         0.000
  BMP Removal ..............         0.000         0.000         0.000         0.000         0.000
  Surface Runoff ...........      5893.165         0.000         0.000         0.000         0.000
  Remaining Buildup ........      6959.304         0.000         0.000         0.000         0.000
  Continuity Error (%) .....         0.014         0.000         0.000         0.000         0.000
  
  
  **************************        Volume        Volume
  Flow Routing Continuity        hectare-m      10^6 ltr
  **************************     ---------     ---------
  Dry Weather Inflow .......         0.000         0.000
  Wet Weather Inflow .......         2.665        26.649
  Groundwater Inflow .......         0.000         0.000
  RDII Inflow ..............         0.000         0.000
  External Inflow ..........         0.561         5.611
  External Outflow .........         1.439        14.387
  Flooding Loss ............         1.658        16.581
  Evaporation Loss .........         0.000         0.000
  Exfiltration Loss ........         0.000         0.000
  Initial Stored Volume ....         0.000         0.000
  Final Stored Volume ......         0.131         1.309
  Continuity Error (%) .....        -0.055
  
  
  **************************           COD         NH3-N            TN            TP            SS
  Quality Routing Continuity            kg            kg            kg            kg            kg
  **************************    ----------    ----------    ----------    ----------    ----------
  Dry Weather Inflow .......         0.000         0.000         0.000         0.000         0.000
  Wet Weather Inflow .......      5886.919         0.000         0.000         0.000         0.000
  Groundwater Inflow .......         0.000         0.000         0.000         0.000         0.000
  RDII Inflow ..............         0.000         0.000         0.000         0.000         0.000
  External Inflow ..........       937.010         0.000         0.000         0.000         0.000
  External Outflow .........      3002.689         0.000         0.000         0.000         0.000
  Flooding Loss ............      3672.319         0.000         0.000         0.000         0.000
  Exfiltration Loss ........         0.000         0.000         0.000         0.000         0.000
  Mass Reacted .............         0.000         0.000         0.000         0.000         0.000
  Initial Stored Mass ......         0.000         0.000         0.000         0.000         0.000
  Final Stored Mass ........       151.294         0.000         0.000         0.000         0.000
  Continuity Error (%) .....        -0.035         0.000         0.000         0.000         0.000
  
  
  ***************************
  Time-Step Critical Elements
  ***************************
  Link WSL1477 (42.55%)
  Link WSL2448 (25.51%)
  Link WSL1516 (16.58%)
  
  
  ********************************
  Highest Flow Instability Indexes
  ********************************
  Link WSL1477 (112)
  Link WSL1516 (107)
  Link WSL1515 (28)
  Link WSL2867 (19)
  Link WSL1475 (19)
  
  
  *************************
  Routing Time Step Summary
  *************************
  Minimum Time Step           :     0.50 sec
  Average Time Step           :     2.36 sec
  Maximum Time Step           :     5.00 sec
  Percent in Steady State     :    -0.00
  Average Iterations per Step :     3.12
  Percent Not Converging      :    10.11
  
  
  ***************************
  Subcatchment Runoff Summary
  ***************************
  
  --------------------------------------------------------------------------------------------------------
                            Total      Total      Total      Total      Total       Total     Peak  Runoff
                           Precip      Runon       Evap      Infil     Runoff      Runoff   Runoff   Coeff
  Subcatchment                 mm         mm         mm         mm         mm    10^6 ltr      MLD
  --------------------------------------------------------------------------------------------------------
  1                         29.24      47.55       0.00      12.48      45.35        0.55     8.05   0.591
  2                         29.24       0.00       0.00       9.66      12.16        0.41     6.98   0.416
  3                         29.24       0.00       0.00       9.77      11.42        0.58     9.92   0.390
  4                         29.24       0.00       0.00       9.59      12.61        0.34     5.72   0.431
  5                         29.24      29.80       0.00      11.89      32.52        0.55     8.02   0.551
  6                         29.24       0.00       0.00       9.77      11.47        0.57     9.66   0.392
  7                         29.24       0.00       0.00      12.57       9.96       15.94   241.09   0.341
  8                         29.24       0.00       0.00       9.73      11.74        0.50     8.48   0.402
  9                         29.24      11.63       0.00      10.86      18.07        0.68    10.37   0.442
  17                        29.24       0.00       0.00       9.69      12.01        0.44     7.51   0.411
  18                        29.24       0.00       0.00       9.73      11.70        0.51     8.65   0.400
  28                        29.24      43.66       0.00      12.82      37.94        1.00    14.33   0.521
  29                        29.24      18.32       0.00      11.07      22.75        0.55     7.68   0.478
  30                        29.24      45.95       0.00      12.43      47.67        0.44     6.61   0.634
  31                        29.24       0.00       0.00       9.68      12.07        0.43     7.30   0.413
  33                        29.24       0.00       0.00       9.19      14.88        0.13     2.24   0.509
  34                        29.24      26.20       0.00      11.77      29.22        0.60     8.74   0.527
  35                        29.24       0.00       0.00       9.63      12.36        0.37     6.38   0.423
  36                        29.24      25.70       0.00      12.16      23.93        1.41    19.64   0.435
  39                        29.24       0.00       0.00       9.67      12.14        0.41     7.05   0.415
  40                        29.24       6.55       0.00      10.39      15.24        0.60     9.42   0.426
  41                        29.24       0.00       0.00       9.49      13.23        0.26     4.38   0.453
  42                        29.24       0.00       0.00       9.54      12.91        0.29     5.02   0.442
  43                        29.24       0.00       0.00       8.79      16.71        0.06     1.08   0.571
  44                        29.24     395.91       0.00      19.34     360.32        1.33    20.34   0.848
  45                        29.24       0.00       0.00       9.26      14.53        0.15     2.58   0.497
  46                        29.24      21.52       0.00      11.38      25.74        0.55     7.84   0.507
  47                        29.24       0.00       0.00       9.28      14.37        0.16     2.75   0.492
  48                        29.24      10.08       0.00      10.36      19.76        0.31     4.81   0.503
  55                        29.24      15.10       0.00      10.42      25.24        0.21     3.20   0.569
  56                        29.24      23.51       0.00      11.53      27.00        0.58     8.22   0.512
  57                        29.24       0.00       0.00       9.77      11.45        0.57     9.76   0.392
  59                        29.24       0.00       0.00       9.17      14.95        0.13     2.18   0.511
  60                        29.24      32.72       0.00      11.23      40.40        0.21     3.21   0.652
  61                        29.24       0.00       0.00      10.03       9.45        1.70    28.86   0.323
  62                        29.24       0.00       0.00      10.04       9.38        1.78    30.21   0.321
  64                        29.24       0.00       0.00       9.31      14.21        0.17     2.93   0.486
  
  
  ****************************
  Subcatchment Washoff Summary
  ****************************
  
  ------------------------------------------------------------------------------------------
                                 COD         NH3-N            TN            TP            SS
  Subcatchment                    kg            kg            kg            kg            kg
  ------------------------------------------------------------------------------------------
  1                          100.867         0.000         0.000         0.000         0.000
  2                            0.000         0.000         0.000         0.000         0.000
  3                            0.000         0.000         0.000         0.000         0.000
  4                           77.170         0.000         0.000         0.000         0.000
  5                          145.952         0.000         0.000         0.000         0.000
  6                          128.299         0.000         0.000         0.000         0.000
  7                         3483.110         0.000         0.000         0.000         0.000
  8                          113.244         0.000         0.000         0.000         0.000
  9                          192.653         0.000         0.000         0.000         0.000
  17                         100.600         0.000         0.000         0.000         0.000
  18                         115.424         0.000         0.000         0.000         0.000
  28                         300.035         0.000         0.000         0.000         0.000
  29                         157.234         0.000         0.000         0.000         0.000
  30                         110.488         0.000         0.000         0.000         0.000
  31                          97.892         0.000         0.000         0.000         0.000
  33                          30.053         0.000         0.000         0.000         0.000
  34                         164.493         0.000         0.000         0.000         0.000
  35                          85.932         0.000         0.000         0.000         0.000
  36                         440.148         0.000         0.000         0.000         0.000
  39                          94.709         0.000         0.000         0.000         0.000
  40                         160.280         0.000         0.000         0.000         0.000
  41                          59.362         0.000         0.000         0.000         0.000
  42                          67.912         0.000         0.000         0.000         0.000
  43                          13.799         0.000         0.000         0.000         0.000
  44                         422.394         0.000         0.000         0.000         0.000
  45                          34.751         0.000         0.000         0.000         0.000
  46                         159.202         0.000         0.000         0.000         0.000
  47                          37.047         0.000         0.000         0.000         0.000
  48                          84.508         0.000         0.000         0.000         0.000
  55                          54.946         0.000         0.000         0.000         0.000
  56                         161.432         0.000         0.000         0.000         0.000
  57                         129.568         0.000         0.000         0.000         0.000
  59                          29.155         0.000         0.000         0.000         0.000
  60                          52.354         0.000         0.000         0.000         0.000
  61                         364.430         0.000         0.000         0.000         0.000
  62                         380.496         0.000         0.000         0.000         0.000
  64                          39.594         0.000         0.000         0.000         0.000
  ------------------------------------------------------------------------------------------
  System                    8189.533         0.000         0.000         0.000         0.000
  
  
  ******************
  Node Depth Summary
  ******************
  
  ---------------------------------------------------------------------------------
                                 Average  Maximum  Maximum  Time of Max    Reported
                                   Depth    Depth      HGL   Occurrence   Max Depth
  Node                 Type       Meters   Meters   Meters  days hr:min      Meters
  ---------------------------------------------------------------------------------
  WS01000070           JUNCTION     0.00     0.00     0.00     0  00:00        0.00
  WS01000323           JUNCTION     0.00     0.00     0.00     0  00:00        0.00
  WS01000533           JUNCTION     0.00     0.00     6.86     0  00:00        0.00
  WS01005172           JUNCTION     0.00     0.00     0.00     0  00:00        0.00
  WS01005181           JUNCTION     0.00     0.00     0.00     0  00:00        0.00
  WS01009841           JUNCTION     0.00     0.00     0.00     0  00:00        0.00
  WS02000078           JUNCTION     0.00     0.00     0.00     0  00:00        0.00
  WS02000112           JUNCTION     0.00     0.00     0.00     0  00:00        0.00
  WS02000136           JUNCTION     0.00     0.00     0.00     0  00:00        0.00
  WS02001211           JUNCTION     0.49     0.64     5.48     0  02:56        0.63
  WS02001212           JUNCTION     0.47     0.74     5.54     0  03:01        0.72
  WS02001213           JUNCTION     0.57     0.85     5.55     0  03:01        0.83
  WS02003059           JUNCTION     0.57     0.81     5.46     0  02:54        0.78
  WS02003060           JUNCTION     0.64     0.88     5.43     0  02:46        0.88
  WS02003066           JUNCTION     0.29     0.48     5.78     0  02:45        0.46
  WS02003067           JUNCTION     0.50     0.78     6.10     0  02:45        0.78
  WS02003071           JUNCTION     0.69     0.94     5.34     0  02:46        0.94
  WS02003072           JUNCTION     0.59     0.87     5.24     0  03:05        0.86
  WS02003073           JUNCTION     0.67     0.99     5.23     0  02:45        0.98
  WS02003076           JUNCTION     0.61     0.93     5.16     0  02:44        0.88
  WS02003077           JUNCTION     0.11     0.16     5.17     0  02:29        0.16
  WS02003078           JUNCTION     0.07     0.11     7.01     0  02:29        0.10
  WS02003079           JUNCTION     0.22     0.34     7.25     0  02:29        0.34
  WS02003093           JUNCTION     0.08     0.16     7.50     0  02:28        0.16
  WS02003094           JUNCTION     0.19     0.28     7.50     0  02:28        0.28
  WS02003098           JUNCTION     0.14     0.23     7.40     0  02:29        0.23
  WS02003099           JUNCTION     0.24     0.37     7.41     0  02:28        0.37
  WS02003102           JUNCTION     0.23     0.36     7.39     0  02:28        0.36
  WS02003103           JUNCTION     0.25     0.38     7.35     0  02:29        0.38
  WS02003104           JUNCTION     0.24     0.37     7.33     0  02:29        0.37
  WS02003106           JUNCTION     0.24     0.36     7.29     0  02:29        0.36
  WS02004050           JUNCTION     0.42     0.58     4.80     0  02:53        0.58
  WS02004053           JUNCTION     0.00     0.00     0.00     0  00:00        0.00
  WS02004136           JUNCTION     0.17     0.18     6.91     0  01:12        0.18
  WS02004139           JUNCTION     0.40     0.53     5.49     0  02:49        0.53
  WS02004401           JUNCTION     0.52     0.79     6.79     0  02:47        0.79
  WS02004402           JUNCTION     0.54     0.81     6.77     0  02:47        0.81
  WS02004403           JUNCTION     0.53     0.82     6.75     0  02:47        0.82
  WS02004404           JUNCTION     0.61     0.89     6.74     0  02:47        0.89
  WS02004405           JUNCTION     0.61     0.89     6.73     0  02:47        0.89
  WS02004406           JUNCTION     0.59     0.86     6.69     0  02:47        0.86
  WS02004407           JUNCTION     0.56     0.82     6.62     0  02:50        0.82
  WS02004409           JUNCTION     0.54     0.79     6.56     0  02:46        0.79
  WS02004410           JUNCTION     0.52     0.76     6.48     0  02:44        0.76
  WS02004411           JUNCTION     0.49     0.71     6.39     0  02:45        0.71
  WS02004412           JUNCTION     0.43     0.63     6.27     0  02:45        0.63
  WS02004413           JUNCTION     0.45     0.68     6.15     0  02:45        0.68
  WS02004997           JUNCTION     5.87     6.68     8.29     0  02:00        6.68
  WS02005192           JUNCTION     0.23     0.33     8.20     0  02:24        0.33
  WS02005193           JUNCTION     0.25     0.36     8.18     0  02:26        0.36
  WS02005196           JUNCTION     0.24     0.34     8.19     0  02:25        0.34
  WS02006109           JUNCTION     0.54     0.76     7.38     0  02:45        0.76
  WS02006110           JUNCTION     0.49     0.68     7.28     0  02:44        0.68
  WS02006111           JUNCTION     0.28     0.40     6.98     0  02:41        0.40
  WS02006112           JUNCTION     0.53     0.78     6.90     0  02:46        0.78
  WS02006113           JUNCTION     0.42     0.57     7.16     0  02:41        0.57
  WS02006115           JUNCTION     0.49     0.75     6.85     0  02:47        0.75
  WS02006116           JUNCTION     0.52     0.79     6.83     0  02:47        0.79
  WS02006183           JUNCTION     0.00     0.00     0.00     0  00:00        0.00
  WS02006228           JUNCTION     0.56     0.81     7.46     0  02:47        0.81
  WS02006229           JUNCTION     0.53     0.79     7.48     0  02:45        0.79
  WS02006230           JUNCTION     0.53     0.81     7.56     0  02:45        0.81
  WS02006231           JUNCTION     0.44     0.73     7.63     0  02:43        0.73
  WS02006232           JUNCTION     0.39     0.65     7.68     0  02:42        0.65
  WS02006234           JUNCTION     0.35     0.55     7.71     0  02:43        0.55
  WS02006235           JUNCTION     0.39     0.59     7.76     0  02:43        0.59
  WS02006238           JUNCTION     0.40     0.59     7.77     0  02:42        0.59
  WS02006239           JUNCTION     0.42     0.61     7.82     0  02:42        0.61
  WS02006242           JUNCTION     0.44     0.63     7.93     0  02:42        0.63
  WS02006240           JUNCTION     0.38     0.57     7.86     0  02:42        0.57
  WS02006243           JUNCTION     0.37     0.55     7.97     0  02:41        0.55
  WS02006245           JUNCTION     0.37     0.53     8.02     0  02:41        0.53
  WS02006247           JUNCTION     0.39     0.56     8.07     0  02:40        0.56
  WS02006248           JUNCTION     0.34     0.49     8.08     0  02:38        0.49
  WS02006249           JUNCTION     0.36     0.51     8.11     0  02:35        0.51
  WS02006251           JUNCTION     0.35     0.49     8.16     0  02:29        0.49
  WS02006253           JUNCTION     0.26     0.37     8.17     0  02:27        0.37
  WS02618401           JUNCTION     0.00     0.00     0.00     0  00:00        0.00
  WS8802               JUNCTION     0.00     0.00     4.38     0  00:00        0.00
  WSA1649              JUNCTION     0.00     0.00     0.00     0  00:00        0.00
  WSF200               JUNCTION     0.29     0.48     5.58     0  02:58        0.45
  XR-Inflow            JUNCTION     5.73     6.55     8.36     0  01:44        6.55
  WS02004114           JUNCTION     5.84     6.65     8.25     0  02:00        6.65
  outfall-2            OUTFALL      0.00     0.00     7.00     0  00:00        0.00
  outfall-5            OUTFALL      0.00     0.00     7.67     0  00:00        0.00
  outfall-14           OUTFALL      0.00     0.00     7.66     0  00:00        0.00
  outfall-16           OUTFALL      0.00     0.00     8.39     0  00:00        0.00
  12                   OUTFALL      0.42     0.57     0.57     0  02:46        0.57
  XR-storage           STORAGE      6.91     7.72     8.22     0  01:34        7.72
  CC-storage           STORAGE      4.29     5.63     8.81     0  02:18        5.63
  JK-storage           STORAGE      4.17     4.80     7.80     0  01:35        4.80
  
  
  *******************
  Node Inflow Summary
  *******************
  
  -------------------------------------------------------------------------------------------------
                                  Maximum  Maximum                  Lateral       Total        Flow
                                  Lateral    Total  Time of Max      Inflow      Inflow     Balance
                                   Inflow   Inflow   Occurrence      Volume      Volume       Error
  Node                 Type           MLD      MLD  days hr:min    10^6 ltr    10^6 ltr     Percent
  -------------------------------------------------------------------------------------------------
  WS01000070           JUNCTION      0.00     0.00     0  00:00           0           0       0.000 ltr
  WS01000323           JUNCTION      0.00     0.00     0  00:00           0           0       0.000 ltr
  WS01000533           JUNCTION      0.00     0.00     0  00:00           0           0       0.000 ltr
  WS01005172           JUNCTION      0.00     0.00     0  00:00           0           0       0.000 ltr
  WS01005181           JUNCTION      0.00     0.00     0  00:00           0           0       0.000 ltr
  WS01009841           JUNCTION      0.00     0.00     0  00:00           0           0       0.000 ltr
  WS02000078           JUNCTION      0.00     0.00     0  00:00           0           0       0.000 ltr
  WS02000112           JUNCTION      0.00     0.00     0  00:00           0           0       0.000 ltr
  WS02000136           JUNCTION      0.00     0.00     0  00:00           0           0       0.000 ltr
  WS02001211           JUNCTION      0.25    38.53     0  02:57      0.0407        4.92       0.560
  WS02001212           JUNCTION      0.21    51.31     0  03:11      0.0346        4.93       0.313
  WS02001213           JUNCTION      0.30    73.38     0  03:08      0.0489        4.97       0.453
  WS02003059           JUNCTION      0.23    46.88     0  03:14      0.0378        4.97       0.585
  WS02003060           JUNCTION      0.16   160.06     0  02:51      0.0252        13.1       0.375
  WS02003066           JUNCTION      0.08   151.03     0  02:45      0.0122        8.12       0.213
  WS02003067           JUNCTION      0.26   113.79     0  02:46      0.0395        8.12       0.148
  WS02003071           JUNCTION      0.35   153.42     0  02:52      0.0538        13.1       0.371
  WS02003072           JUNCTION      0.24   153.21     0  03:00      0.0382        13.1       0.235
  WS02003073           JUNCTION      0.07   177.52     0  02:45     0.00978        14.3       0.187
  WS02003076           JUNCTION      0.72   190.16     0  03:07        0.12        14.4       0.118
  WS02003077           JUNCTION      0.04    20.22     0  02:29      0.0059         1.2       0.116
  WS02003078           JUNCTION      0.03    23.88     0  02:29     0.00419         1.2      -0.095
  WS02003079           JUNCTION      0.04    18.81     0  02:29     0.00561         1.2       0.260
  WS02003093           JUNCTION      0.02     0.15     0  02:14     0.00306     0.00428       9.991
  WS02003094           JUNCTION     10.42    10.43     0  02:27       0.691       0.695       0.691
  WS02003098           JUNCTION      0.02    10.43     0  02:27     0.00293       0.692       0.462
  WS02003099           JUNCTION      0.07    10.52     0  02:30      0.0109         0.7       0.933
  WS02003102           JUNCTION      8.51    18.73     0  02:26       0.501        1.19       0.482
  WS02003103           JUNCTION      0.02    18.71     0  02:27     0.00239        1.19       0.330
  WS02003104           JUNCTION      0.02    18.71     0  02:29     0.00302        1.19       0.279
  WS02003106           JUNCTION      0.05    18.75     0  02:29     0.00727        1.19       0.333
  WS02004050           JUNCTION      0.72   206.19     0  02:44       0.119        14.5       0.554
  WS02004053           JUNCTION      0.00     0.00     0  00:00           0           0       0.000 ltr
  WS02004136           JUNCTION      0.44    32.92     0  01:12      0.0703        4.84       0.066
  WS02004139           JUNCTION      0.38    33.63     0  01:12      0.0619         4.9       0.376
  WS02004401           JUNCTION      0.05    73.61     0  02:42     0.00897        5.55       0.290
  WS02004402           JUNCTION      0.22    73.78     0  02:49      0.0335        5.57       0.268
  WS02004403           JUNCTION      0.23    74.04     0  02:49      0.0349        5.59       0.236
  WS02004404           JUNCTION      0.24    74.31     0  02:49      0.0365        5.61       0.193
  WS02004405           JUNCTION      5.79    79.01     0  02:49       0.347        5.95       0.271
  WS02004406           JUNCTION     14.45    92.84     0  02:49        1.02        6.95       0.358
  WS02004407           JUNCTION      0.11    93.03     0  02:48      0.0171        6.94       0.319
  WS02004409           JUNCTION      8.22   101.29     0  02:48       0.586        7.51       0.262
  WS02004410           JUNCTION      0.15   101.60     0  02:47      0.0226        7.51       0.258
  WS02004411           JUNCTION      0.25   102.21     0  02:47      0.0379        7.53       0.225
  WS02004412           JUNCTION      9.74   110.76     0  02:46       0.581        8.09       0.180
  WS02004413           JUNCTION      0.11   111.35     0  02:46      0.0172        8.09       0.176
  WS02004997           JUNCTION      0.42    63.57     0  02:00      0.0693        7.97       0.490
  WS02005192           JUNCTION      9.86     9.86     0  02:22       0.589        0.59       0.124
  WS02005193           JUNCTION      0.09    10.02     0  02:22      0.0146       0.629       0.219
  WS02005196           JUNCTION      0.12     9.96     0  02:22       0.019        0.61       0.248
  WS02006109           JUNCTION      0.08    64.25     0  02:49      0.0135        4.92       0.369
  WS02006110           JUNCTION      0.08    64.34     0  02:49      0.0132        4.91       0.336
  WS02006111           JUNCTION      0.24    72.97     0  02:42      0.0366        5.53       0.132
  WS02006112           JUNCTION      0.18    73.15     0  02:42      0.0273        5.55       0.303
  WS02006113           JUNCTION     10.07    72.75     0  02:42       0.608         5.5       0.230
  WS02006115           JUNCTION      0.08    73.28     0  02:45      0.0134        5.54       0.318
  WS02006116           JUNCTION      0.24    73.56     0  02:43       0.036        5.56       0.302
  WS02006183           JUNCTION      0.00     0.00     0  00:00           0           0       0.000 ltr
  WS02006228           JUNCTION     20.49    64.17     0  02:49        1.36        4.92       0.282
  WS02006229           JUNCTION      0.13    44.48     0  02:36        0.02        3.57       0.333
  WS02006230           JUNCTION      0.07    44.40     0  02:34      0.0116        3.56       0.356
  WS02006231           JUNCTION      0.13    44.34     0  02:34      0.0205        3.56       0.217
  WS02006232           JUNCTION      7.06    44.30     0  02:34       0.423        3.54       0.186
  WS02006234           JUNCTION      0.14    38.03     0  02:40      0.0216        3.13       0.180
  WS02006235           JUNCTION      0.14    37.91     0  02:40      0.0223        3.11       0.112
  WS02006238           JUNCTION      0.15    37.80     0  02:39      0.0235        3.09       0.150
  WS02006239           JUNCTION      0.11    37.71     0  02:35      0.0174        3.08       0.243
  WS02006242           JUNCTION      0.08    37.68     0  02:30      0.0129        3.06       0.290
  WS02006240           JUNCTION      0.06    37.67     0  02:33     0.00992        3.06       0.222
  WS02006243           JUNCTION      0.17    37.69     0  02:29      0.0269        3.06       0.188
  WS02006245           JUNCTION      0.07    37.58     0  02:29      0.0113        3.03       0.146
  WS02006247           JUNCTION      8.19    37.54     0  02:29       0.572        3.03       0.139
  WS02006248           JUNCTION      0.12    30.78     0  02:24      0.0192        2.46       0.092
  WS02006249           JUNCTION      0.19    30.72     0  02:24      0.0286        2.44       0.146
  WS02006251           JUNCTION      3.26    30.60     0  02:24       0.219        2.42       0.108
  WS02006253           JUNCTION      0.11    27.38     0  02:22      0.0173         2.2       0.031
  WS02618401           JUNCTION      0.00     0.00     0  00:00           0           0       0.000 ltr
  WS8802               JUNCTION      0.00     0.00     0  00:00           0           0       0.000 ltr
  WSA1649              JUNCTION      0.00     0.00     0  00:00           0           0       0.000 ltr
  WSF200               JUNCTION      0.14   133.26     0  02:58      0.0216        8.12      -0.005
  XR-Inflow            JUNCTION    260.18   260.18     0  02:52        19.2        19.2       0.125
  WS02004114           JUNCTION      0.57    64.13     0  02:00      0.0916        8.03       0.301
  outfall-2            OUTFALL       0.00     0.00     0  00:00           0           0       0.000 ltr
  outfall-5            OUTFALL       0.00     0.00     0  00:00           0           0       0.000 ltr
  outfall-14           OUTFALL       0.00     0.00     0  00:00           0           0       0.000 ltr
  outfall-16           OUTFALL       0.00     0.00     0  00:00           0           0       0.000 ltr
  12                   OUTFALL       0.00   173.57     0  02:46           0        14.4       0.000
  XR-storage           STORAGE       0.00    64.13     0  02:00           0        8.01       0.583
  CC-storage           STORAGE      30.48    30.48     0  02:25        1.99        1.99      -0.010
  JK-storage           STORAGE      31.20    31.20     0  02:25        1.96        1.96      -0.001
  
  
  **********************
  Node Surcharge Summary
  **********************
  
  Surcharging occurs when water rises above the top of the highest conduit.
  ---------------------------------------------------------------------
                                               Max. Height   Min. Depth
                                   Hours       Above Crown    Below Rim
  Node                 Type      Surcharged         Meters       Meters
  ---------------------------------------------------------------------
  WS01000070           JUNCTION        4.00          0.000        0.000
  WS01000323           JUNCTION        4.00          0.000        0.000
  WS01000533           JUNCTION        4.00          0.000        2.147
  WS01005172           JUNCTION        4.00          0.000        0.000
  WS01005181           JUNCTION        4.00          0.000        0.000
  WS01009841           JUNCTION        4.00          0.000        0.000
  WS02000078           JUNCTION        4.00          0.000        0.000
  WS02000112           JUNCTION        4.00          0.000        0.000
  WS02000136           JUNCTION        4.00          0.000        0.000
  WS02004053           JUNCTION        4.00          0.000        0.000
  WS02004997           JUNCTION        3.88          5.784        0.216
  WS02006183           JUNCTION        4.00          0.000        0.000
  WS02006228           JUNCTION        0.47          0.010        2.221
  WS02006231           JUNCTION        0.58          0.028        1.515
  WS02618401           JUNCTION        4.00          0.000        0.000
  WS8802               JUNCTION        4.00          0.000        4.942
  WSA1649              JUNCTION        4.00          0.000        0.000
  XR-Inflow            JUNCTION        3.87          5.650        0.000
  WS02004114           JUNCTION        3.88          5.748        0.767
  
  
  *********************
  Node Flooding Summary
  *********************
  
  Flooding refers to all water that overflows a node, whether it ponds or not.
  --------------------------------------------------------------------------
                                                             Total   Maximum
                                 Maximum   Time of Max       Flood    Ponded
                        Hours       Rate    Occurrence      Volume     Depth
  Node                 Flooded       MLD   days hr:min    10^6 ltr    Meters
  --------------------------------------------------------------------------
  XR-Inflow               2.26    197.03      0  02:52      11.312     0.000
  XR-storage              2.43     31.65      0  02:00       3.128     0.000
  CC-storage              0.86     13.20      0  02:25       0.321     0.000
  JK-storage              2.41     31.20      0  02:25       1.820     0.000
  
  
  **********************
  Storage Volume Summary
  **********************
  
  --------------------------------------------------------------------------------------------------
                         Average     Avg  Evap Exfil       Maximum     Max    Time of Max    Maximum
                          Volume    Pcnt  Pcnt  Pcnt        Volume    Pcnt     Occurrence    Outflow
  Storage Unit           1000 m3    Full  Loss  Loss       1000 m3    Full    days hr:min        MLD
  --------------------------------------------------------------------------------------------------
  XR-storage               0.056      90     0     0         0.063     100       0  01:34      32.48
  CC-storage               0.121      76     0     0         0.159     100       0  02:18      17.28
  JK-storage               0.118      87     0     0         0.136     100       0  01:35       0.00
  
  
  ***********************
  Outfall Loading Summary
  ***********************
  
  ---------------------------------------------------------------------------------------------------------------------------------
                         Flow       Avg       Max       Total         Total         Total         Total         Total         Total
                         Freq      Flow      Flow      Volume           COD         NH3-N            TN            TP            SS
  Outfall Node           Pcnt       MLD       MLD    10^6 ltr            kg            kg            kg            kg            kg
  ---------------------------------------------------------------------------------------------------------------------------------
  outfall-2              0.00      0.00      0.00       0.000         0.000         0.000         0.000         0.000         0.000
  outfall-5              0.00      0.00      0.00       0.000         0.000         0.000         0.000         0.000         0.000
  outfall-14             0.00      0.00      0.00       0.000         0.000         0.000         0.000         0.000         0.000
  outfall-16             0.00      0.00      0.00       0.000         0.000         0.000         0.000         0.000         0.000
  12                    99.98    108.18    173.57      14.387      3002.944         0.000         0.000         0.000         0.000
  ---------------------------------------------------------------------------------------------------------------------------------
  System                20.00    108.18    173.57      14.387      3002.944         0.000         0.000         0.000         0.000
  
  
  ********************
  Link Flow Summary
  ********************
  
  -----------------------------------------------------------------------------
                                 Maximum  Time of Max   Maximum    Max/    Max/
                                  |Flow|   Occurrence   |Veloc|    Full    Full
  Link                 Type          MLD  days hr:min     m/sec    Flow   Depth
  -----------------------------------------------------------------------------
  WSL49                CONDUIT    189.45     0  03:07      2.71    2.36    0.78
  WSL1465              CONDUIT     44.82     0  02:41      1.66    0.41    0.84
  WSL1472              CONDUIT    153.00     0  03:00      2.09    1.74    0.74
  WSL1475              CONDUIT    205.48     0  02:44      3.21    2.19    0.52
  WSL1476              CONDUIT     18.99     0  02:29      0.72    0.09    0.60
  WSL1477              CONDUIT     23.86     0  02:29      2.84    0.94    0.38
  WSL1490              CONDUIT     43.41     0  03:15      1.39    0.70    0.67
  WSL1491              CONDUIT     73.10     0  03:08      1.57    0.43    0.70
  WSL1492              CONDUIT     46.66     0  03:14      1.39    0.72    0.79
  WSL1507              CONDUIT      0.13     0  02:14      0.11    0.00    0.27
  WSL1508              CONDUIT     10.41     0  02:27      0.91    0.29    0.32
  WSL1512              CONDUIT     10.45     0  02:30      0.63    0.07    0.30
  WSL1513              CONDUIT     10.53     0  02:31      0.57    0.62    0.45
  WSL1515              CONDUIT    150.96     0  02:45      3.13    1.47    0.49
  WSL1516              CONDUIT     20.18     0  02:29      4.88    0.07    0.23
  WSL1518              CONDUIT     18.70     0  02:27      0.96    0.37    0.46
  WSL1519              CONDUIT     18.71     0  02:29      0.97    0.47    0.46
  WSL1521              CONDUIT     18.77     0  02:29      1.02    0.54    0.44
  WSL1543              CONDUIT     18.70     0  02:29      0.94    0.58    0.47
  WSL1961              CONDUIT     33.25     0  01:12      3.07    0.07    0.35
  WSL1964              CONDUIT     38.29     0  02:57      1.38    0.21    0.48
  WSL2010              CONDUIT     73.84     0  02:49      1.26    0.94    0.81
  WSL2011              CONDUIT     74.10     0  02:49      1.21    0.48    0.85
  WSL2012              CONDUIT     74.33     0  02:49      1.17    1.13    0.89
  WSL2013              CONDUIT     79.05     0  02:49      1.27    1.96    0.87
  WSL2014              CONDUIT     92.93     0  02:48      1.54    1.48    0.84
  WSL2015              CONDUIT     93.09     0  02:48      1.61    1.25    0.80
  WSL2016              CONDUIT    101.47     0  02:47      1.82    1.17    0.77
  WSL2017              CONDUIT    101.99     0  02:47      1.96    1.24    0.73
  WSL2018              CONDUIT    111.25     0  02:46      2.51    0.66    0.66
  WSL2019              CONDUIT    113.56     0  02:46      2.42    0.67    0.73
  WSL2028              CONDUIT     73.59     0  02:49      1.27    0.79    0.80
  WSL2029              CONDUIT    102.73     0  02:46      2.19    1.30    0.67
  WSL2038              CONDUIT      9.85     0  02:22      0.70    0.49    0.56
  WSL2039              CONDUIT     10.00     0  02:22      1.34    0.51    0.60
  WSL2041              CONDUIT      9.94     0  02:22      0.83    0.49    0.58
  WSL2294              CONDUIT     64.26     0  02:49      1.56    2.16    0.90
  WSL2295              CONDUIT     64.35     0  02:49      1.77    2.89    0.79
  WSL2296              CONDUIT     72.99     0  02:42      2.12    0.41    0.74
  WSL2297              CONDUIT     73.20     0  02:45      1.34    1.40    0.77
  WSL2298              CONDUIT     72.76     0  02:42      2.62    3.35    0.61
  WSL2301              CONDUIT     73.36     0  02:43      1.33    0.68    0.77
  WSL2302              CONDUIT     73.55     0  02:42      1.29    0.90    0.79
  WSL2441              CONDUIT     64.17     0  02:49      1.49    1.64    0.98
  WSL2442              CONDUIT     44.36     0  02:36      1.33    1.13    1.00
  WSL2443              CONDUIT     44.33     0  02:34      1.45    0.69    1.00
  WSL2444              CONDUIT     44.22     0  02:34      1.72    0.70    0.96
  WSL2446              CONDUIT     38.03     0  02:44      1.66    0.65    0.85
  WSL2447              CONDUIT     37.91     0  02:40      1.54    1.95    0.81
  WSL2448              CONDUIT     37.78     0  02:40      1.42    1.06    0.84
  WSL2449              CONDUIT     37.66     0  02:39      1.36    1.31    0.85
  WSL2450              CONDUIT     37.61     0  02:35      1.36    0.78    0.84
  WSL2451              CONDUIT     37.61     0  02:33      1.31    2.45    0.85
  WSL2452              CONDUIT     37.61     0  02:30      1.32    0.72    0.84
  WSL2454              CONDUIT     37.53     0  02:29      1.46    0.88    0.77
  WSL2478              CONDUIT     37.51     0  02:29      1.39    1.32    0.78
  WSL2479              CONDUIT     30.73     0  02:25      1.24    0.58    0.75
  WSL2480              CONDUIT     30.67     0  02:24      1.28    1.42    0.72
  WSL2482              CONDUIT     30.56     0  02:24      1.23    0.80    0.72
  WSL2484              CONDUIT     27.36     0  02:23      1.77    0.39    0.62
  WSL2493              CONDUIT     44.46     0  02:36      1.06    0.75    0.99
  WSL2867              CONDUIT    133.13     0  02:58      4.18    0.27    0.38
  WSL2868              CONDUIT    121.82     0  03:01      2.26    0.23    0.55
  WSL348               CONDUIT     63.16     0  03:00      1.88    0.58    1.00
  WSL175               CONDUIT     63.56     0  02:00      2.29    2.14    1.00
  WSL1467              CONDUIT    153.11     0  02:52      1.98    0.81    0.76
  WSL1473              CONDUIT    159.92     0  02:45      2.27    0.66    0.76
  XRpipe               CONDUIT     64.13     0  02:00      2.54    0.16    1.00
  8                    CONDUIT      0.00     0  00:00      0.00    0.00    0.00
  19                   CONDUIT      0.00     0  00:00      0.00    0.00    0.00
  17                   CONDUIT      0.00     0  00:00      0.00    0.00    0.00
  4                    CONDUIT      0.00     0  00:00      0.00    0.00    0.00
  2                    CONDUIT    173.57     0  02:46      4.30    0.63    0.58
  XR-Pump-1            PUMP         8.12     0  00:08              1.00
  XR-Pump-3            PUMP         8.12     0  00:09              1.00
  XR-Pump-2            PUMP         8.12     0  00:09              1.00
  XR-Pump-4            PUMP         8.12     0  01:12              1.00
  CC-Pump-1            PUMP        17.28     0  01:27              1.00
  CC-Pump-2            PUMP         0.00     0  00:00              0.00
  JK-Pump-1            PUMP         0.00     0  00:00              0.00
  JK-Pump-2            PUMP         0.00     0  00:00              0.00
  
  
  ***************************
  Flow Classification Summary
  ***************************
  
  -------------------------------------------------------------------------------------
                      Adjusted    ---------- Fraction of Time in Flow Class ---------- 
                       /Actual         Up    Down  Sub   Sup   Up    Down  Norm  Inlet 
  Conduit               Length    Dry  Dry   Dry   Crit  Crit  Crit  Crit  Ltd   Ctrl  
  -------------------------------------------------------------------------------------
  WSL49                   1.00   0.00  0.00  0.00  0.99  0.01  0.00  0.00  0.00  0.00
  WSL1465                 1.00   0.00  0.00  0.00  1.00  0.00  0.00  0.00  0.10  0.00
  WSL1472                 1.00   0.00  0.00  0.00  1.00  0.00  0.00  0.00  0.00  0.00
  WSL1475                 1.00   0.00  0.00  0.00  0.17  0.83  0.00  0.00  0.01  0.00
  WSL1476                 1.00   0.00  0.00  0.00  1.00  0.00  0.00  0.00  0.99  0.00
  WSL1477                 1.00   0.00  0.00  0.00  0.00  1.00  0.00  0.00  0.38  0.00
  WSL1490                 1.00   0.00  0.00  0.00  1.00  0.00  0.00  0.00  0.02  0.00
  WSL1491                 1.00   0.00  0.00  0.00  1.00  0.00  0.00  0.00  0.04  0.00
  WSL1492                 1.00   0.00  0.00  0.00  1.00  0.00  0.00  0.00  0.00  0.00
  WSL1507                 1.00   0.00  0.00  0.00  1.00  0.00  0.00  0.00  0.38  0.00
  WSL1508                 1.00   0.00  0.00  0.00  1.00  0.00  0.00  0.00  0.00  0.00
  WSL1512                 1.00   0.00  0.00  0.00  1.00  0.00  0.00  0.00  0.72  0.00
  WSL1513                 1.00   0.00  0.00  0.00  1.00  0.00  0.00  0.00  0.00  0.00
  WSL1515                 1.00   0.00  0.00  0.00  0.14  0.86  0.00  0.00  0.05  0.00
  WSL1516                 1.00   0.00  0.00  0.00  0.00  1.00  0.00  0.00  1.00  0.00
  WSL1518                 1.00   0.00  0.00  0.00  1.00  0.00  0.00  0.00  0.36  0.00
  WSL1519                 1.00   0.00  0.00  0.00  1.00  0.00  0.00  0.00  0.30  0.00
  WSL1521                 1.00   0.00  0.00  0.00  1.00  0.00  0.00  0.00  0.02  0.00
  WSL1543                 1.00   0.00  0.00  0.00  1.00  0.00  0.00  0.00  0.02  0.00
  WSL1961                 1.00   0.00  0.00  0.00  0.02  0.98  0.00  0.00  0.98  0.00
  WSL1964                 1.00   0.00  0.00  0.00  1.00  0.00  0.00  0.00  0.05  0.00
  WSL2010                 1.00   0.00  0.00  0.00  1.00  0.00  0.00  0.00  0.02  0.00
  WSL2011                 1.00   0.00  0.00  0.00  1.00  0.00  0.00  0.00  0.27  0.00
  WSL2012                 1.00   0.00  0.00  0.00  1.00  0.00  0.00  0.00  0.00  0.00
  WSL2013                 1.00   0.00  0.00  0.00  1.00  0.00  0.00  0.00  0.00  0.00
  WSL2014                 1.00   0.00  0.00  0.00  1.00  0.00  0.00  0.00  0.00  0.00
  WSL2015                 1.00   0.00  0.00  0.00  1.00  0.00  0.00  0.00  0.02  0.00
  WSL2016                 1.00   0.00  0.00  0.00  1.00  0.00  0.00  0.00  0.01  0.00
  WSL2017                 1.00   0.00  0.00  0.00  1.00  0.00  0.00  0.00  0.04  0.00
  WSL2018                 1.00   0.00  0.00  0.00  0.06  0.94  0.00  0.00  0.07  0.00
  WSL2019                 1.00   0.00  0.00  0.00  0.75  0.25  0.00  0.00  0.11  0.00
  WSL2028                 1.00   0.00  0.00  0.00  1.00  0.00  0.00  0.00  0.06  0.00
  WSL2029                 1.00   0.00  0.00  0.00  0.84  0.16  0.00  0.00  0.00  0.00
  WSL2038                 1.00   0.00  0.00  0.00  1.00  0.00  0.00  0.00  0.02  0.00
  WSL2039                 1.00   0.00  0.00  0.00  0.92  0.08  0.00  0.00  0.01  0.00
  WSL2041                 1.00   0.00  0.00  0.00  1.00  0.00  0.00  0.00  0.28  0.00
  WSL2294                 1.00   0.00  0.00  0.00  1.00  0.00  0.00  0.00  0.00  0.00
  WSL2295                 1.00   0.00  0.00  0.00  1.00  0.00  0.00  0.00  0.00  0.00
  WSL2296                 1.00   0.00  0.00  0.00  0.60  0.40  0.00  0.00  0.45  0.00
  WSL2297                 1.00   0.00  0.00  0.00  1.00  0.00  0.00  0.00  0.00  0.00
  WSL2298                 1.00   0.00  0.00  0.00  0.04  0.96  0.00  0.00  0.00  0.00
  WSL2301                 1.00   0.00  0.00  0.00  1.00  0.00  0.00  0.00  0.09  0.00
  WSL2302                 1.00   0.00  0.00  0.00  1.00  0.00  0.00  0.00  0.02  0.00
  WSL2441                 1.00   0.00  0.00  0.00  1.00  0.00  0.00  0.00  0.00  0.00
  WSL2442                 1.00   0.00  0.00  0.00  1.00  0.00  0.00  0.00  0.19  0.00
  WSL2443                 1.00   0.00  0.00  0.00  1.00  0.00  0.00  0.00  0.33  0.00
  WSL2444                 1.00   0.00  0.00  0.00  0.67  0.33  0.00  0.00  0.20  0.00
  WSL2446                 1.00   0.00  0.00  0.00  0.72  0.28  0.00  0.00  0.05  0.00
  WSL2447                 1.00   0.00  0.00  0.00  1.00  0.00  0.00  0.00  0.00  0.00
  WSL2448                 1.00   0.00  0.00  0.00  1.00  0.00  0.00  0.00  0.01  0.00
  WSL2449                 1.00   0.00  0.00  0.00  1.00  0.00  0.00  0.00  0.03  0.00
  WSL2450                 1.00   0.00  0.00  0.00  1.00  0.00  0.00  0.00  0.37  0.00
  WSL2451                 1.00   0.00  0.00  0.00  1.00  0.00  0.00  0.00  0.00  0.00
  WSL2452                 1.00   0.00  0.00  0.00  1.00  0.00  0.00  0.00  0.38  0.00
  WSL2454                 1.00   0.00  0.00  0.00  1.00  0.00  0.00  0.00  0.05  0.00
  WSL2478                 1.00   0.00  0.00  0.00  1.00  0.00  0.00  0.00  0.00  0.00
  WSL2479                 1.00   0.00  0.00  0.00  1.00  0.00  0.00  0.00  0.37  0.00
  WSL2480                 1.00   0.00  0.00  0.00  1.00  0.00  0.00  0.00  0.00  0.00
  WSL2482                 1.00   0.00  0.00  0.00  1.00  0.00  0.00  0.00  0.38  0.00
  WSL2484                 1.00   0.00  0.00  0.00  0.99  0.01  0.00  0.00  0.44  0.00
  WSL2493                 1.00   0.00  0.00  0.00  1.00  0.00  0.00  0.00  0.05  0.00
  WSL2867                 1.00   0.00  0.00  0.00  0.00  1.00  0.00  0.00  0.18  0.00
  WSL2868                 1.00   0.00  0.00  0.00  0.97  0.03  0.00  0.00  0.54  0.00
  WSL348                  1.00   0.00  0.00  0.00  1.00  0.00  0.00  0.00  0.01  0.00
  WSL175                  1.00   0.00  0.00  0.00  1.00  0.00  0.00  0.00  0.00  0.00
  WSL1467                 1.00   0.00  0.00  0.00  1.00  0.00  0.00  0.00  0.06  0.00
  WSL1473                 1.00   0.00  0.00  0.00  1.00  0.00  0.00  0.00  0.05  0.00
  XRpipe                  1.00   0.00  0.00  0.00  1.00  0.00  0.00  0.00  0.01  0.00
  8                       1.00   1.00  0.00  0.00  0.00  0.00  0.00  0.00  0.00  0.00
  19                      1.00   1.00  0.00  0.00  0.00  0.00  0.00  0.00  0.00  0.00
  17                      1.00   1.00  0.00  0.00  0.00  0.00  0.00  0.00  0.00  0.00
  4                       1.00   1.00  0.00  0.00  0.00  0.00  0.00  0.00  0.00  0.00
  2                       1.00   0.00  0.00  0.00  0.00  1.00  0.00  0.00  0.17  0.00
  
  
  *************************
  Conduit Surcharge Summary
  *************************
  
  ----------------------------------------------------------------------------
                                                           Hours        Hours 
                         --------- Hours Full --------   Above Full   Capacity
  Conduit                Both Ends  Upstream  Dnstream   Normal Flow   Limited
  ----------------------------------------------------------------------------
  WSL49                       0.01      0.01      0.01      2.01         0.01
  WSL1472                     0.01      0.01      0.01      1.85         0.01
  WSL1475                     0.01      0.01      0.01      1.81         0.01
  WSL1476                     0.01      0.01      1.00      0.01         0.01
  WSL1515                     0.01      0.01      0.01      0.60         0.01
  WSL2012                     0.01      0.01      0.01      0.87         0.01
  WSL2013                     0.01      0.01      0.01      1.84         0.01
  WSL2014                     0.01      0.01      0.01      1.44         0.01
  WSL2015                     0.01      0.01      0.01      1.05         0.01
  WSL2016                     0.01      0.01      0.01      0.91         0.01
  WSL2017                     0.01      0.01      0.01      1.01         0.01
  WSL2029                     0.01      0.01      0.01      1.10         0.01
  WSL2294                     0.01      0.01      0.01      1.98         0.01
  WSL2295                     0.01      0.01      0.01      2.21         0.01
  WSL2297                     0.01      0.01      0.01      1.31         0.01
  WSL2298                     0.01      0.01      0.01      2.24         0.01
  WSL2441                     0.01      0.47      0.01      1.69         0.01
  WSL2442                     0.90      0.91      0.91      0.95         0.88
  WSL2443                     0.58      0.58      0.91      0.01         0.01
  WSL2444                     0.01      0.01      0.58      0.01         0.01
  WSL2447                     0.01      0.01      0.01      2.09         0.01
  WSL2448                     0.01      0.01      0.01      0.84         0.01
  WSL2449                     0.01      0.01      0.01      1.49         0.01
  WSL2451                     0.01      0.01      0.01      2.18         0.01
  WSL2478                     0.01      0.01      0.01      1.47         0.01
  WSL2480                     0.01      0.01      0.01      1.83         0.01
  WSL2493                     0.01      0.01      0.47      0.01         0.01
  WSL348                      3.87      3.87      3.88      0.01         0.01
  WSL175                      3.88      3.88      3.88      2.69         2.78
  XRpipe                      3.88      3.88      3.96      0.01         0.01
  
  
  ***************
  Pumping Summary
  ***************
  
  ---------------------------------------------------------------------------------------------------------
                                                  Min       Avg       Max     Total     Power    % Time Off
                        Percent   Number of      Flow      Flow      Flow    Volume     Usage    Pump Curve
  Pump                 Utilized   Start-Ups       MLD       MLD       MLD  10^6 ltr     Kw-hr    Low   High
  ---------------------------------------------------------------------------------------------------------
  XR-Pump-1               96.32           1      0.00      8.12      8.12     1.303      6.29    0.0    0.0
  XR-Pump-3               91.52          17      0.00      8.12      8.12     1.239      5.81    0.0    0.0
  XR-Pump-2               96.18           1      0.00      8.12      8.12     1.301      6.28    0.0    0.0
  XR-Pump-4               68.27           7      0.00      8.12      8.12     0.924      3.46    0.0    0.0
  CC-Pump-1               54.20           3      0.00     17.28     17.28     1.561      3.36    0.0    0.0
  CC-Pump-2                0.00           0      0.00      0.00      0.00     0.000      0.00    0.0    0.0
  JK-Pump-1                0.00           0      0.00      0.00      0.00     0.000      0.00    0.0    0.0
  JK-Pump-2                0.00           0      0.00      0.00      0.00     0.000      0.00    0.0    0.0
  
  
  ***************************
  Link Pollutant Load Summary
  ***************************
  
  ------------------------------------------------------------------------------------------
                                 COD         NH3-N            TN            TP            SS
  Link                            kg            kg            kg            kg            kg
  ------------------------------------------------------------------------------------------
  WSL49                     2972.753         0.000         0.000         0.000         0.000
  WSL1465                    893.922         0.000         0.000         0.000         0.000
  WSL1472                   2660.310         0.000         0.000         0.000         0.000
  WSL1475                   2991.320         0.000         0.000         0.000         0.000
  WSL1476                    312.564         0.000         0.000         0.000         0.000
  WSL1477                    310.911         0.000         0.000         0.000         0.000
  WSL1490                    884.014         0.000         0.000         0.000         0.000
  WSL1491                    890.713         0.000         0.000         0.000         0.000
  WSL1492                    891.112         0.000         0.000         0.000         0.000
  WSL1507                      1.486         0.000         0.000         0.000         0.000
  WSL1508                    194.713         0.000         0.000         0.000         0.000
  WSL1512                    194.647         0.000         0.000         0.000         0.000
  WSL1513                    195.938         0.000         0.000         0.000         0.000
  WSL1515                   1762.907         0.000         0.000         0.000         0.000
  WSL1516                    310.982         0.000         0.000         0.000         0.000
  WSL1518                    309.014         0.000         0.000         0.000         0.000
  WSL1519                    309.054         0.000         0.000         0.000         0.000
  WSL1521                    309.802         0.000         0.000         0.000         0.000
  WSL1543                    308.685         0.000         0.000         0.000         0.000
  WSL1961                    871.624         0.000         0.000         0.000         0.000
  WSL1964                    880.452         0.000         0.000         0.000         0.000
  WSL2010                   1089.290         0.000         0.000         0.000         0.000
  WSL2011                   1093.386         0.000         0.000         0.000         0.000
  WSL2012                   1098.039         0.000         0.000         0.000         0.000
  WSL2013                   1175.140         0.000         0.000         0.000         0.000
  WSL2014                   1474.860         0.000         0.000         0.000         0.000
  WSL2015                   1474.386         0.000         0.000         0.000         0.000
  WSL2016                   1623.260         0.000         0.000         0.000         0.000
  WSL2017                   1624.186         0.000         0.000         0.000         0.000
  WSL2018                   1756.823         0.000         0.000         0.000         0.000
  WSL2019                   1757.717         0.000         0.000         0.000         0.000
  WSL2028                   1085.629         0.000         0.000         0.000         0.000
  WSL2029                   1628.115         0.000         0.000         0.000         0.000
  WSL2038                    132.713         0.000         0.000         0.000         0.000
  WSL2039                    139.633         0.000         0.000         0.000         0.000
  WSL2041                    136.434         0.000         0.000         0.000         0.000
  WSL2294                   1071.759         0.000         0.000         0.000         0.000
  WSL2295                   1071.714         0.000         0.000         0.000         0.000
  WSL2296                   1079.782         0.000         0.000         0.000         0.000
  WSL2297                   1082.389         0.000         0.000         0.000         0.000
  WSL2298                   1074.515         0.000         0.000         0.000         0.000
  WSL2301                   1082.341         0.000         0.000         0.000         0.000
  WSL2302                   1086.245         0.000         0.000         0.000         0.000
  WSL2441                   1071.844         0.000         0.000         0.000         0.000
  WSL2442                    645.032         0.000         0.000         0.000         0.000
  WSL2443                    644.520         0.000         0.000         0.000         0.000
  WSL2444                    641.936         0.000         0.000         0.000         0.000
  WSL2446                    640.396         0.000         0.000         0.000         0.000
  WSL2447                    637.249         0.000         0.000         0.000         0.000
  WSL2448                    633.757         0.000         0.000         0.000         0.000
  WSL2449                    630.590         0.000         0.000         0.000         0.000
  WSL2450                    628.492         0.000         0.000         0.000         0.000
  WSL2451                    627.643         0.000         0.000         0.000         0.000
  WSL2452                    626.525         0.000         0.000         0.000         0.000
  WSL2454                    622.662         0.000         0.000         0.000         0.000
  WSL2478                    621.197         0.000         0.000         0.000         0.000
  WSL2479                    516.942         0.000         0.000         0.000         0.000
  WSL2480                    513.811         0.000         0.000         0.000         0.000
  WSL2482                    509.638         0.000         0.000         0.000         0.000
  WSL2484                    452.993         0.000         0.000         0.000         0.000
  WSL2493                    647.055         0.000         0.000         0.000         0.000
  WSL2867                   1761.353         0.000         0.000         0.000         0.000
  WSL2868                   1766.259         0.000         0.000         0.000         0.000
  WSL348                    1457.218         0.000         0.000         0.000         0.000
  WSL175                    1464.215         0.000         0.000         0.000         0.000
  WSL1467                   2657.915         0.000         0.000         0.000         0.000
  WSL1473                   2662.287         0.000         0.000         0.000         0.000
  XRpipe                    1477.411         0.000         0.000         0.000         0.000
  8                            0.000         0.000         0.000         0.000         0.000
  19                           0.000         0.000         0.000         0.000         0.000
  17                           0.000         0.000         0.000         0.000         0.000
  4                            0.000         0.000         0.000         0.000         0.000
  2                         3002.944         0.000         0.000         0.000         0.000
  XR-Pump-1                  233.406         0.000         0.000         0.000         0.000
  XR-Pump-3                  222.577         0.000         0.000         0.000         0.000
  XR-Pump-2                  233.092         0.000         0.000         0.000         0.000
  XR-Pump-4                  170.359         0.000         0.000         0.000         0.000
  CC-Pump-1                  311.784         0.000         0.000         0.000         0.000
  CC-Pump-2                    0.000         0.000         0.000         0.000         0.000
  JK-Pump-1                    0.000         0.000         0.000         0.000         0.000
  JK-Pump-2                    0.000         0.000         0.000         0.000         0.000
  

  Analysis begun on:  Tue Mar 19 20:20:28 2019
  Analysis ended on:  Tue Mar 19 20:20:28 2019
  Total elapsed time: < 1 sec