
  EPA STORM WATER MANAGEMENT MODEL - VERSION 5.1 (Build 5.2.0.dev1)
  --------------------------------------------------------------

  
  *********************************************************
  NOTE: The summary statistics displayed in this report are
  based on results found at every computational time step,  
  not just on results from each reporting time step.
  *********************************************************
  
  ****************
  Analysis Options
  ****************
  Flow Units ............... MLD
  Process Models:
    Rainfall/Runoff ........ YES
    RDII ................... NO
    Snowmelt ............... NO
    Groundwater ............ NO
    Flow Routing ........... YES
    Ponding Allowed ........ NO
    Water Quality .......... YES
  Infiltration Method ...... GREEN_AMPT
  Flow Routing Method ...... DYNWAVE
  Starting Date ............ 08/28/2015 08:00:00
  Ending Date .............. 08/28/2015 12:00:00
  Antecedent Dry Days ...... 4.0
  Report Time Step ......... 00:01:00
  Wet Time Step ............ 00:01:00
  Dry Time Step ............ 00:01:00
  Routing Time Step ........ 5.00 sec
  Variable Time Step ....... YES
  Maximum Trials ........... 8
  Number of Threads ........ 1
  Head Tolerance ........... 0.001500 m
  
  
  **************************        Volume         Depth
  Runoff Quantity Continuity     hectare-m            mm
  **************************     ---------       -------
  Total Precipitation ......        10.774        38.199
  Evaporation Loss .........         0.000         0.000
  Infiltration Loss ........         3.992        14.152
  Surface Runoff ...........         3.688        13.074
  Final Storage ............         3.101        10.995
  Continuity Error (%) .....        -0.057
  
  
  **************************           COD         NH3-N            TN            TP            SS
  Runoff Quality Continuity             kg            kg            kg            kg            kg
  **************************    ----------    ----------    ----------    ----------    ----------
  Initial Buildup ..........     13074.240         0.000         0.000         0.000         0.000
  Surface Buildup ..........       103.264         0.000         0.000         0.000         0.000
  Wet Deposition ...........         0.000         0.000         0.000         0.000         0.000
  Sweeping Removal .........         0.000         0.000         0.000         0.000         0.000
  Infiltration Loss ........       342.666         0.000         0.000         0.000         0.000
  BMP Removal ..............         0.000         0.000         0.000         0.000         0.000
  Surface Runoff ...........      8536.332         0.000         0.000         0.000         0.000
  Remaining Buildup ........      4299.299         0.000         0.000         0.000         0.000
  Continuity Error (%) .....        -0.006         0.000         0.000         0.000         0.000
  
  
  **************************        Volume        Volume
  Flow Routing Continuity        hectare-m      10^6 ltr
  **************************     ---------     ---------
  Dry Weather Inflow .......         0.000         0.000
  Wet Weather Inflow .......         3.678        36.781
  Groundwater Inflow .......         0.000         0.000
  RDII Inflow ..............         0.000         0.000
  External Inflow ..........         0.561         5.611
  External Outflow .........         1.742        17.417
  Flooding Loss ............         2.334        23.337
  Evaporation Loss .........         0.000         0.000
  Exfiltration Loss ........         0.000         0.000
  Initial Stored Volume ....         0.000         0.000
  Final Stored Volume ......         0.168         1.676
  Continuity Error (%) .....        -0.093
  
  
  **************************           COD         NH3-N            TN            TP            SS
  Quality Routing Continuity            kg            kg            kg            kg            kg
  **************************    ----------    ----------    ----------    ----------    ----------
  Dry Weather Inflow .......         0.000         0.000         0.000         0.000         0.000
  Wet Weather Inflow .......      8526.917         0.000         0.000         0.000         0.000
  Groundwater Inflow .......         0.000         0.000         0.000         0.000         0.000
  RDII Inflow ..............         0.000         0.000         0.000         0.000         0.000
  External Inflow ..........       937.001         0.000         0.000         0.000         0.000
  External Outflow .........      3524.776         0.000         0.000         0.000         0.000
  Flooding Loss ............      5781.916         0.000         0.000         0.000         0.000
  Exfiltration Loss ........         0.000         0.000         0.000         0.000         0.000
  Mass Reacted .............         0.000         0.000         0.000         0.000         0.000
  Initial Stored Mass ......         0.000         0.000         0.000         0.000         0.000
  Final Stored Mass ........       158.498         0.000         0.000         0.000         0.000
  Continuity Error (%) .....        -0.013         0.000         0.000         0.000         0.000
  
  
  ***************************
  Time-Step Critical Elements
  ***************************
  Link 8 (43.78%)
  Link WSL2448 (26.89%)
  Link WSL1477 (10.69%)
  Link WSL1516 (3.03%)
  Link WSL2012 (1.66%)
  
  
  ********************************
  Highest Flow Instability Indexes
  ********************************
  Link WSL1477 (73)
  Link WSL1516 (67)
  Link WSL1521 (35)
  Link WSL1476 (29)
  Link WSL1515 (21)
  
  
  *************************
  Routing Time Step Summary
  *************************
  Minimum Time Step           :     0.50 sec
  Average Time Step           :     1.52 sec
  Maximum Time Step           :     5.00 sec
  Percent in Steady State     :    -0.00
  Average Iterations per Step :     2.92
  Percent Not Converging      :     8.25
  
  
  ***************************
  Subcatchment Runoff Summary
  ***************************
  
  --------------------------------------------------------------------------------------------------------
                            Total      Total      Total      Total      Total       Total     Peak  Runoff
                           Precip      Runon       Evap      Infil     Runoff      Runoff   Runoff   Coeff
  Subcatchment                 mm         mm         mm         mm         mm    10^6 ltr      MLD
  --------------------------------------------------------------------------------------------------------
  1                         38.20      68.92       0.00      13.72      66.96        0.81    14.54   0.625
  2                         38.20       0.00       0.00      10.52      17.14        0.58    11.55   0.449
  3                         38.20       0.00       0.00      10.66      16.04        0.82    16.28   0.420
  4                         38.20       0.00       0.00      10.44      17.79        0.47     9.50   0.466
  5                         38.20      41.90       0.00      13.01      46.88        0.80    14.79   0.585
  6                         38.20       0.00       0.00      10.65      16.12        0.80    15.85   0.422
  7                         38.20       0.00       0.00      16.38      13.47       21.55   405.70   0.353
  8                         38.20       0.00       0.00      10.60      16.52        0.70    13.96   0.433
  9                         38.20      16.37       0.00      11.89      25.84        0.98    18.06   0.474
  17                        38.20       0.00       0.00      10.55      16.91        0.62    12.39   0.443
  18                        38.20       0.00       0.00      10.61      16.46        0.71    14.23   0.431
  28                        38.20      63.21       0.00      14.14      56.11        1.48    25.83   0.553
  29                        38.20      26.38       0.00      12.14      33.10        0.80    14.29   0.512
  30                        38.20      64.70       0.00      13.58      68.69        0.64    12.14   0.668
  31                        38.20       0.00       0.00      10.54      17.00        0.60    12.05   0.445
  33                        38.20       0.00       0.00       9.94      21.04        0.18     3.79   0.551
  34                        38.20      36.92       0.00      12.89      42.19        0.87    16.16   0.562
  35                        38.20       0.00       0.00      10.49      17.43        0.53    10.58   0.456
  36                        38.20      36.73       0.00      13.40      34.78        2.05    36.57   0.464
  39                        38.20       0.00       0.00      10.53      17.11        0.58    11.66   0.448
  40                        38.20       9.25       0.00      11.36      21.70        0.85    16.08   0.457
  41                        38.20       0.00       0.00      10.31      18.69        0.36     7.32   0.489
  42                        38.20       0.00       0.00      10.37      18.23        0.42     8.36   0.477
  43                        38.20       0.00       0.00       9.46      23.58        0.08     1.83   0.617
  44                        38.20     574.24       0.00      21.32     528.25        1.95    36.42   0.863
  45                        38.20       0.00       0.00      10.02      20.55        0.21     4.35   0.538
  46                        38.20      30.69       0.00      12.48      37.33        0.80    14.64   0.542
  47                        38.20       0.00       0.00      10.06      20.33        0.23     4.63   0.532
  48                        38.20      14.24       0.00      11.29      28.31        0.45     8.49   0.540
  55                        38.20      21.35       0.00      11.34      36.23        0.30     5.77   0.608
  56                        38.20      33.44       0.00      12.64      39.17        0.84    15.39   0.547
  57                        38.20       0.00       0.00      10.66      16.09        0.80    16.01   0.421
  59                        38.20       0.00       0.00       9.92      21.15        0.18     3.68   0.554
  60                        38.20      46.26       0.00      12.22      58.14        0.30     5.86   0.688
  61                        38.20       0.00       0.00      10.99      13.13        2.36    46.63   0.344
  62                        38.20       0.00       0.00      11.00      13.02        2.47    48.79   0.341
  64                        38.20       0.00       0.00      10.09      20.10        0.24     4.93   0.526
  
  
  ****************************
  Subcatchment Washoff Summary
  ****************************
  
  ------------------------------------------------------------------------------------------
                                 COD         NH3-N            TN            TP            SS
  Subcatchment                    kg            kg            kg            kg            kg
  ------------------------------------------------------------------------------------------
  1                          127.218         0.000         0.000         0.000         0.000
  2                            0.000         0.000         0.000         0.000         0.000
  3                            0.000         0.000         0.000         0.000         0.000
  4                          107.102         0.000         0.000         0.000         0.000
  5                          184.266         0.000         0.000         0.000         0.000
  6                          186.295         0.000         0.000         0.000         0.000
  7                         5246.993         0.000         0.000         0.000         0.000
  8                          162.713         0.000         0.000         0.000         0.000
  9                          240.992         0.000         0.000         0.000         0.000
  17                         143.072         0.000         0.000         0.000         0.000
  18                         166.116         0.000         0.000         0.000         0.000
  28                         352.439         0.000         0.000         0.000         0.000
  29                         184.606         0.000         0.000         0.000         0.000
  30                         144.976         0.000         0.000         0.000         0.000
  31                         138.881         0.000         0.000         0.000         0.000
  33                          38.012         0.000         0.000         0.000         0.000
  34                         201.545         0.000         0.000         0.000         0.000
  35                         120.472         0.000         0.000         0.000         0.000
  36                         526.858         0.000         0.000         0.000         0.000
  39                         133.965         0.000         0.000         0.000         0.000
  40                         208.041         0.000         0.000         0.000         0.000
  41                          80.316         0.000         0.000         0.000         0.000
  42                          93.102         0.000         0.000         0.000         0.000
  43                          16.300         0.000         0.000         0.000         0.000
  44                         511.945         0.000         0.000         0.000         0.000
  45                          44.580         0.000         0.000         0.000         0.000
  46                         185.034         0.000         0.000         0.000         0.000
  47                          47.827         0.000         0.000         0.000         0.000
  48                         100.409         0.000         0.000         0.000         0.000
  55                          63.415         0.000         0.000         0.000         0.000
  56                         191.410         0.000         0.000         0.000         0.000
  57                         188.292         0.000         0.000         0.000         0.000
  59                          36.768         0.000         0.000         0.000         0.000
  60                          63.650         0.000         0.000         0.000         0.000
  61                         569.033         0.000         0.000         0.000         0.000
  62                         595.631         0.000         0.000         0.000         0.000
  64                          51.453         0.000         0.000         0.000         0.000
  ------------------------------------------------------------------------------------------
  System                   11453.724         0.000         0.000         0.000         0.000
  
  
  ******************
  Node Depth Summary
  ******************
  
  ---------------------------------------------------------------------------------
                                 Average  Maximum  Maximum  Time of Max    Reported
                                   Depth    Depth      HGL   Occurrence   Max Depth
  Node                 Type       Meters   Meters   Meters  days hr:min      Meters
  ---------------------------------------------------------------------------------
  WS01000070           JUNCTION     0.00     0.00     0.00     0  00:00        0.00
  WS01000323           JUNCTION     0.00     0.00     0.00     0  00:00        0.00
  WS01000533           JUNCTION     0.00     0.00     6.86     0  00:00        0.00
  WS01005172           JUNCTION     0.00     0.00     0.00     0  00:00        0.00
  WS01005181           JUNCTION     0.00     0.00     0.00     0  00:00        0.00
  WS01009841           JUNCTION     0.00     0.00     0.00     0  00:00        0.00
  WS02000078           JUNCTION     0.00     0.00     0.00     0  00:00        0.00
  WS02000112           JUNCTION     0.00     0.00     0.00     0  00:00        0.00
  WS02000136           JUNCTION     0.00     0.00     0.00     0  00:00        0.00
  WS02001211           JUNCTION     0.62     0.83     5.67     0  02:57        0.83
  WS02001212           JUNCTION     0.62     0.89     5.69     0  02:49        0.87
  WS02001213           JUNCTION     0.72     0.98     5.68     0  02:56        0.96
  WS02003059           JUNCTION     0.74     3.28     7.93     0  02:46        1.00
  WS02003060           JUNCTION     0.81     1.12     5.67     0  02:55        1.09
  WS02003066           JUNCTION     0.37     0.59     5.89     0  02:57        0.54
  WS02003067           JUNCTION     0.64     0.96     6.28     0  02:56        0.95
  WS02003071           JUNCTION     0.85     1.14     5.54     0  02:55        1.14
  WS02003072           JUNCTION     0.74     1.04     5.41     0  02:54        1.02
  WS02003073           JUNCTION     0.81     1.18     5.42     0  03:05        1.14
  WS02003076           JUNCTION     0.74     1.05     5.28     0  03:24        0.97
  WS02003077           JUNCTION     0.16     0.42     5.43     0  03:25        0.37
  WS02003078           JUNCTION     0.10     0.14     7.04     0  02:53        0.14
  WS02003079           JUNCTION     0.32     0.46     7.37     0  02:55        0.46
  WS02003093           JUNCTION     0.16     0.27     7.61     0  02:54        0.27
  WS02003094           JUNCTION     0.27     0.39     7.61     0  02:53        0.39
  WS02003098           JUNCTION     0.23     0.37     7.54     0  02:53        0.37
  WS02003099           JUNCTION     0.35     0.50     7.54     0  02:53        0.50
  WS02003102           JUNCTION     0.33     0.49     7.52     0  02:52        0.49
  WS02003103           JUNCTION     0.35     0.51     7.48     0  02:53        0.51
  WS02003104           JUNCTION     0.34     0.50     7.46     0  02:53        0.50
  WS02003106           JUNCTION     0.34     0.48     7.41     0  02:54        0.48
  WS02004050           JUNCTION     0.53     0.71     4.93     0  03:00        0.70
  WS02004053           JUNCTION     0.00     0.00     0.00     0  00:00        0.00
  WS02004136           JUNCTION     0.18     0.18     6.91     0  01:13        0.18
  WS02004139           JUNCTION     0.52     0.72     5.68     0  02:57        0.72
  WS02004401           JUNCTION     0.80     1.22     7.22     0  02:58        1.22
  WS02004402           JUNCTION     0.81     1.22     7.18     0  02:58        1.22
  WS02004403           JUNCTION     0.81     1.21     7.14     0  02:58        1.21
  WS02004404           JUNCTION     0.87     1.26     7.11     0  02:58        1.26
  WS02004405           JUNCTION     0.87     1.25     7.09     0  02:58        1.25
  WS02004406           JUNCTION     0.84     1.21     7.04     0  02:58        1.19
  WS02004407           JUNCTION     0.78     1.12     6.92     0  02:58        1.11
  WS02004409           JUNCTION     0.75     1.07     6.84     0  02:58        1.05
  WS02004410           JUNCTION     0.71     0.99     6.71     0  02:58        0.98
  WS02004411           JUNCTION     0.66     0.91     6.59     0  02:58        0.91
  WS02004412           JUNCTION     0.58     0.81     6.45     0  02:57        0.80
  WS02004413           JUNCTION     0.60     0.85     6.32     0  02:57        0.82
  WS02004997           JUNCTION     6.17     6.69     8.30     0  02:41        6.68
  WS02005192           JUNCTION     0.40     0.73     8.60     0  02:41        0.66
  WS02005193           JUNCTION     0.43     0.74     8.56     0  02:41        0.68
  WS02005196           JUNCTION     0.41     0.72     8.57     0  02:41        0.66
  WS02006109           JUNCTION     0.81     1.26     7.88     0  02:59        1.26
  WS02006110           JUNCTION     0.74     1.16     7.76     0  02:59        1.16
  WS02006111           JUNCTION     0.51     0.90     7.48     0  02:58        0.90
  WS02006112           JUNCTION     0.82     1.25     7.37     0  02:58        1.25
  WS02006113           JUNCTION     0.65     1.06     7.65     0  02:59        1.06
  WS02006115           JUNCTION     0.78     1.21     7.31     0  02:58        1.21
  WS02006116           JUNCTION     0.81     1.23     7.27     0  02:58        1.23
  WS02006183           JUNCTION     0.00     0.00     0.00     0  00:00        0.00
  WS02006228           JUNCTION     0.86     1.34     7.99     0  02:59        1.34
  WS02006229           JUNCTION     0.84     1.32     8.01     0  02:59        1.32
  WS02006230           JUNCTION     0.84     1.31     8.06     0  02:59        1.31
  WS02006231           JUNCTION     0.75     1.21     8.11     0  02:59        1.21
  WS02006232           JUNCTION     0.69     1.13     8.16     0  02:59        1.13
  WS02006234           JUNCTION     0.63     1.02     8.18     0  02:59        1.02
  WS02006235           JUNCTION     0.66     1.03     8.20     0  02:59        1.03
  WS02006238           JUNCTION     0.66     1.03     8.21     0  02:59        1.03
  WS02006239           JUNCTION     0.67     1.02     8.23     0  02:59        1.02
  WS02006242           JUNCTION     0.67     0.98     8.28     0  03:01        0.98
  WS02006240           JUNCTION     0.63     0.97     8.26     0  02:59        0.96
  WS02006243           JUNCTION     0.60     0.89     8.31     0  03:01        0.89
  WS02006245           JUNCTION     0.59     0.85     8.34     0  03:00        0.85
  WS02006247           JUNCTION     0.60     0.84     8.35     0  03:00        0.84
  WS02006248           JUNCTION     0.54     0.77     8.36     0  02:59        0.77
  WS02006249           JUNCTION     0.56     0.79     8.39     0  02:59        0.79
  WS02006251           JUNCTION     0.54     0.80     8.47     0  02:40        0.79
  WS02006253           JUNCTION     0.44     0.68     8.48     0  02:55        0.68
  WS02618401           JUNCTION     0.00     0.00     0.00     0  00:00        0.00
  WS8802               JUNCTION     0.00     0.00     4.38     0  00:00        0.00
  WSA1649              JUNCTION     0.00     0.00     0.00     0  00:00        0.00
  WSF200               JUNCTION     0.38     0.62     5.72     0  02:51        0.61
  XR-Inflow            JUNCTION     6.03     6.55     8.36     0  01:41        6.55
  WS02004114           JUNCTION     6.14     6.65     8.25     0  02:43        6.65
  outfall-2            OUTFALL      0.00     0.00     7.00     0  00:00        0.00
  outfall-5            OUTFALL      0.06     0.17     7.83     0  02:59        0.17
  outfall-14           OUTFALL      0.00     0.00     7.66     0  00:00        0.00
  outfall-16           OUTFALL      0.00     0.00     8.39     0  00:00        0.00
  12                   OUTFALL      0.53     0.70     0.70     0  02:56        0.69
  XR-storage           STORAGE      7.21     7.72     8.22     0  01:31        7.72
  CC-storage           STORAGE      4.84     5.63     8.81     0  02:27        5.63
  JK-storage           STORAGE      4.40     4.80     7.80     0  01:33        4.80
  
  
  *******************
  Node Inflow Summary
  *******************
  
  -------------------------------------------------------------------------------------------------
                                  Maximum  Maximum                  Lateral       Total        Flow
                                  Lateral    Total  Time of Max      Inflow      Inflow     Balance
                                   Inflow   Inflow   Occurrence      Volume      Volume       Error
  Node                 Type           MLD      MLD  days hr:min    10^6 ltr    10^6 ltr     Percent
  -------------------------------------------------------------------------------------------------
  WS01000070           JUNCTION      0.00     0.00     0  00:00           0           0       0.000 ltr
  WS01000323           JUNCTION      0.00     0.00     0  00:00           0           0       0.000 ltr
  WS01000533           JUNCTION      0.00     0.00     0  00:00           0           0       0.000 ltr
  WS01005172           JUNCTION      0.00     0.00     0  00:00           0           0       0.000 ltr
  WS01005181           JUNCTION      0.00     0.00     0  00:00           0           0       0.000 ltr
  WS01009841           JUNCTION      0.00     0.00     0  00:00           0           0       0.000 ltr
  WS02000078           JUNCTION      0.00     0.00     0  00:00           0           0       0.000 ltr
  WS02000112           JUNCTION      0.00     0.00     0  00:00           0           0       0.000 ltr
  WS02000136           JUNCTION      0.00     0.00     0  00:00           0           0       0.000 ltr
  WS02001211           JUNCTION      0.25    44.92     0  03:16      0.0407        4.92       0.693
  WS02001212           JUNCTION      0.21    42.23     0  03:29      0.0346        4.93       0.497
  WS02001213           JUNCTION      0.30    45.27     0  03:16      0.0489        4.95       0.604
  WS02003059           JUNCTION      0.23    44.49     0  03:52      0.0378        4.96       0.893
  WS02003060           JUNCTION      0.16   213.59     0  02:52      0.0252        15.2       0.434
  WS02003066           JUNCTION      0.08   207.75     0  02:57      0.0122        10.3       0.158
  WS02003067           JUNCTION      0.26   162.12     0  02:52      0.0395        10.3       0.201
  WS02003071           JUNCTION      0.35   198.44     0  02:59      0.0538        15.2       0.438
  WS02003072           JUNCTION      0.24   197.94     0  02:58      0.0382        15.2       0.300
  WS02003073           JUNCTION      0.07   238.87     0  02:54     0.00978        16.8       0.227
  WS02003076           JUNCTION      0.72   246.79     0  03:06        0.12        16.9       0.145
  WS02003077           JUNCTION      0.04    33.37     0  02:54      0.0059        1.68       0.049
  WS02003078           JUNCTION      0.03    39.69     0  02:54     0.00419        1.68       0.038
  WS02003079           JUNCTION      0.04    31.76     0  02:53     0.00561        1.68       0.214
  WS02003093           JUNCTION      0.02     0.25     0  02:38     0.00306     0.00577      18.670
  WS02003094           JUNCTION     18.12    18.12     0  02:51       0.984       0.989       0.672
  WS02003098           JUNCTION      0.02    18.12     0  02:53     0.00293       0.983       0.472
  WS02003099           JUNCTION      0.07    18.22     0  02:55      0.0109       0.989       0.955
  WS02003102           JUNCTION     13.98    31.69     0  02:50       0.703        1.68       0.512
  WS02003103           JUNCTION      0.02    31.66     0  02:52     0.00239        1.68       0.335
  WS02003104           JUNCTION      0.02    31.66     0  02:53     0.00302        1.67       0.285
  WS02003106           JUNCTION      0.05    31.70     0  02:53     0.00727        1.68       0.337
  WS02004050           JUNCTION      0.72   261.64     0  02:59       0.119          17       0.617
  WS02004053           JUNCTION      0.00     0.00     0  00:00           0           0       0.000 ltr
  WS02004136           JUNCTION      0.44    32.92     0  01:10      0.0703        4.85       0.066
  WS02004139           JUNCTION      0.38    33.58     0  01:12      0.0619        4.91       0.466
  WS02004401           JUNCTION      0.05    90.13     0  02:59     0.00897         6.7       0.340
  WS02004402           JUNCTION      0.22    90.83     0  02:59      0.0335        6.71       0.308
  WS02004403           JUNCTION      0.23    91.04     0  02:59      0.0349        6.72       0.274
  WS02004404           JUNCTION      0.24    91.26     0  02:59      0.0365        6.74       0.211
  WS02004405           JUNCTION      9.57   100.02     0  02:59       0.484        7.21       0.292
  WS02004406           JUNCTION     25.95   125.66     0  02:59        1.49        8.68       0.378
  WS02004407           JUNCTION      0.11   125.77     0  02:59      0.0171        8.67       0.343
  WS02004409           JUNCTION     14.98   140.71     0  02:59       0.829        9.47       0.279
  WS02004410           JUNCTION      0.15   140.79     0  02:59      0.0226        9.46       0.275
  WS02004411           JUNCTION      0.25   141.35     0  02:58      0.0379        9.47       0.243
  WS02004412           JUNCTION     15.94   156.59     0  02:58        0.81        10.3       0.201
  WS02004413           JUNCTION      0.11   157.93     0  02:55      0.0172        10.3       0.192
  WS02004997           JUNCTION      0.42    63.59     0  02:41      0.0693        8.04       0.485
  WS02005192           JUNCTION     16.11    16.11     0  02:46       0.821       0.821       0.179
  WS02005193           JUNCTION      0.09    16.77     0  02:41      0.0146       0.854       0.487
  WS02005196           JUNCTION      0.12    16.60     0  02:40       0.019        0.84       0.430
  WS02006109           JUNCTION      0.08    74.96     0  03:05      0.0135        5.86       0.375
  WS02006110           JUNCTION      0.08    75.04     0  03:05      0.0132        5.85       0.342
  WS02006111           JUNCTION      0.24    89.89     0  02:42      0.0366        6.69       0.141
  WS02006112           JUNCTION      0.18    89.79     0  02:59      0.0273        6.71       0.330
  WS02006113           JUNCTION     16.43    89.42     0  03:00       0.843        6.67       0.236
  WS02006115           JUNCTION      0.08    89.87     0  02:59      0.0134         6.7       0.366
  WS02006116           JUNCTION      0.24    90.08     0  02:59       0.036        6.71       0.346
  WS02006183           JUNCTION      0.00     0.00     0  00:00           0           0       0.000 ltr
  WS02006228           JUNCTION     36.57    74.89     0  03:05        1.98        5.86       0.290
  WS02006229           JUNCTION      0.13    48.26     0  02:39        0.02         3.9       0.375
  WS02006230           JUNCTION      0.07    48.81     0  02:38      0.0116        3.89       0.420
  WS02006231           JUNCTION      0.13    48.71     0  02:39      0.0205         3.9       0.315
  WS02006232           JUNCTION     11.63    48.55     0  02:39        0.59        3.89       0.261
  WS02006234           JUNCTION      0.14    40.01     0  03:32      0.0216         3.3       0.249
  WS02006235           JUNCTION      0.14    39.84     0  03:32      0.0223        3.29       0.160
  WS02006238           JUNCTION      0.15    39.65     0  03:32      0.0235        3.27       0.213
  WS02006239           JUNCTION      0.11    39.45     0  03:31      0.0174        3.26       0.359
  WS02006242           JUNCTION      0.08    40.72     0  02:36      0.0129        3.26       0.460
  WS02006240           JUNCTION      0.06    40.02     0  02:36     0.00992        3.25       0.359
  WS02006243           JUNCTION      0.17    41.77     0  02:37      0.0269        3.26       0.370
  WS02006245           JUNCTION      0.07    42.48     0  02:37      0.0113        3.24       0.289
  WS02006247           JUNCTION     14.67    43.08     0  02:37       0.832        3.24       0.265
  WS02006248           JUNCTION      0.12    40.22     0  02:41      0.0192        2.94       0.231
  WS02006249           JUNCTION      0.19    39.99     0  02:41      0.0286        2.93       0.326
  WS02006251           JUNCTION      5.83    39.80     0  02:41        0.31        2.91       0.328
  WS02006253           JUNCTION      0.11    34.28     0  02:41      0.0173        2.61       0.164
  WS02618401           JUNCTION      0.00     0.00     0  00:00           0           0       0.000 ltr
  WS8802               JUNCTION      0.00     0.00     0  00:00           0           0       0.000 ltr
  WSA1649              JUNCTION      0.00     0.00     0  00:00           0           0       0.000 ltr
  WSF200               JUNCTION      0.14   192.86     0  02:57      0.0216        10.3       0.022
  XR-Inflow            JUNCTION    423.83   423.83     0  03:00        24.8        24.8       0.100
  WS02004114           JUNCTION      0.57    64.13     0  02:00      0.0916         8.1       0.300
  outfall-2            OUTFALL       0.00     0.00     0  00:00           0           0       0.000 ltr
  outfall-5            OUTFALL       0.00    27.26     0  02:59           0       0.527       0.000
  outfall-14           OUTFALL       0.00     0.00     0  00:00           0           0       0.000 ltr
  outfall-16           OUTFALL       0.00     0.00     0  00:00           0           0       0.000 ltr
  12                   OUTFALL       0.00   230.51     0  02:56           0        16.9       0.000
  XR-storage           STORAGE       0.00    64.13     0  02:00           0        8.07       0.577
  CC-storage           STORAGE      48.24    48.24     0  02:48        2.65        2.65       0.002
  JK-storage           STORAGE      49.78    49.78     0  02:48        2.65        2.65       0.006
  
  
  **********************
  Node Surcharge Summary
  **********************
  
  Surcharging occurs when water rises above the top of the highest conduit.
  ---------------------------------------------------------------------
                                               Max. Height   Min. Depth
                                   Hours       Above Crown    Below Rim
  Node                 Type      Surcharged         Meters       Meters
  ---------------------------------------------------------------------
  WS01000070           JUNCTION        4.00          0.000        0.000
  WS01000323           JUNCTION        4.00          0.000        0.000
  WS01000533           JUNCTION        4.00          0.000        2.147
  WS01005172           JUNCTION        4.00          0.000        0.000
  WS01005181           JUNCTION        4.00          0.000        0.000
  WS01009841           JUNCTION        4.00          0.000        0.000
  WS02000078           JUNCTION        4.00          0.000        0.000
  WS02000112           JUNCTION        4.00          0.000        0.000
  WS02000136           JUNCTION        4.00          0.000        0.000
  WS02003059           JUNCTION        0.02          2.275        1.442
  WS02004053           JUNCTION        4.00          0.000        0.000
  WS02004402           JUNCTION        0.57          0.221        1.519
  WS02004403           JUNCTION        0.55          0.210        1.820
  WS02004404           JUNCTION        0.72          0.263        2.517
  WS02004405           JUNCTION        0.71          0.254        2.546
  WS02004406           JUNCTION        0.59          0.206        2.244
  WS02004407           JUNCTION        0.43          0.120        2.223
  WS02004409           JUNCTION        0.32          0.067        2.293
  WS02004997           JUNCTION        3.88          5.795        0.205
  WS02005192           JUNCTION        0.37          0.128        2.691
  WS02005193           JUNCTION        0.42          0.140        2.477
  WS02005196           JUNCTION        0.39          0.125        2.581
  WS02006109           JUNCTION        0.95          0.464        1.374
  WS02006110           JUNCTION        0.62          0.361        1.484
  WS02006111           JUNCTION        0.34          0.103        1.774
  WS02006112           JUNCTION        0.55          0.247        1.436
  WS02006113           JUNCTION        0.49          0.261        1.672
  WS02006115           JUNCTION        0.50          0.209        2.090
  WS02006116           JUNCTION        0.55          0.228        2.122
  WS02006183           JUNCTION        4.00          0.000        0.000
  WS02006228           JUNCTION        1.16          0.541        1.690
  WS02006229           JUNCTION        1.09          0.517        1.937
  WS02006231           JUNCTION        1.17          0.513        1.030
  WS02006232           JUNCTION        1.00          0.428        1.061
  WS02006234           JUNCTION        0.73          0.324        0.933
  WS02006235           JUNCTION        0.81          0.332        0.962
  WS02006238           JUNCTION        0.82          0.328        1.106
  WS02006239           JUNCTION        0.91          0.322        1.007
  WS02006242           JUNCTION        0.94          0.283        0.566
  WS02006240           JUNCTION        0.80          0.265        1.138
  WS02006243           JUNCTION        0.79          0.192        0.588
  WS02006245           JUNCTION        0.72          0.147        0.708
  WS02006247           JUNCTION        0.77          0.143        0.617
  WS02006249           JUNCTION        0.56          0.087        0.301
  WS02006251           JUNCTION        0.48          0.103        1.407
  WS02618401           JUNCTION        4.00          0.000        0.000
  WS8802               JUNCTION        4.00          0.000        4.942
  WSA1649              JUNCTION        4.00          0.000        0.000
  XR-Inflow            JUNCTION        3.87          5.650        0.000
  WS02004114           JUNCTION        3.88          5.754        0.761
  
  
  *********************
  Node Flooding Summary
  *********************
  
  Flooding refers to all water that overflows a node, whether it ponds or not.
  --------------------------------------------------------------------------
                                                             Total   Maximum
                                 Maximum   Time of Max       Flood    Ponded
                        Hours       Rate    Occurrence      Volume     Depth
  Node                 Flooded       MLD   days hr:min    10^6 ltr    Meters
  --------------------------------------------------------------------------
  XR-Inflow               2.31    360.67      0  03:00      16.842     0.000
  XR-storage              2.47     31.65      0  02:00       3.186     0.000
  CC-storage              1.10     30.96      0  02:48       0.801     0.000
  JK-storage              2.44     49.78      0  02:48       2.510     0.000
  
  
  **********************
  Storage Volume Summary
  **********************
  
  --------------------------------------------------------------------------------------------------
                         Average     Avg  Evap Exfil       Maximum     Max    Time of Max    Maximum
                          Volume    Pcnt  Pcnt  Pcnt        Volume    Pcnt     Occurrence    Outflow
  Storage Unit           1000 m3    Full  Loss  Loss       1000 m3    Full    days hr:min        MLD
  --------------------------------------------------------------------------------------------------
  XR-storage               0.059      93     0     0         0.063     100       0  01:31      32.48
  CC-storage               0.137      86     0     0         0.159     100       0  02:27      17.28
  JK-storage               0.124      92     0     0         0.136     100       0  01:33       0.00
  
  
  ***********************
  Outfall Loading Summary
  ***********************
  
  ---------------------------------------------------------------------------------------------------------------------------------
                         Flow       Avg       Max       Total         Total         Total         Total         Total         Total
                         Freq      Flow      Flow      Volume           COD         NH3-N            TN            TP            SS
  Outfall Node           Pcnt       MLD       MLD    10^6 ltr            kg            kg            kg            kg            kg
  ---------------------------------------------------------------------------------------------------------------------------------
  outfall-2              0.00      0.00      0.00       0.000         0.000         0.000         0.000         0.000         0.000
  outfall-5             52.62     16.88     27.26       0.527       148.576         0.000         0.000         0.000         0.000
  outfall-14             0.00      0.00      0.00       0.000         0.000         0.000         0.000         0.000         0.000
  outfall-16             0.00      0.00      0.00       0.000         0.000         0.000         0.000         0.000         0.000
  12                    99.99    154.84    230.51      16.891      3376.647         0.000         0.000         0.000         0.000
  ---------------------------------------------------------------------------------------------------------------------------------
  System                30.52    171.72    257.35      17.417      3525.224         0.000         0.000         0.000         0.000
  
  
  ********************
  Link Flow Summary
  ********************
  
  -----------------------------------------------------------------------------
                                 Maximum  Time of Max   Maximum    Max/    Max/
                                  |Flow|   Occurrence   |Veloc|    Full    Full
  Link                 Type          MLD  days hr:min     m/sec    Flow   Depth
  -----------------------------------------------------------------------------
  WSL49                CONDUIT    246.07     0  03:06      3.00    3.06    0.90
  WSL1465              CONDUIT     48.94     0  02:50      1.66    0.45    1.00
  WSL1472              CONDUIT    197.72     0  02:58      2.27    2.25    0.89
  WSL1475              CONDUIT    260.92     0  02:59      3.40    2.78    0.59
  WSL1476              CONDUIT     42.41     0  02:54      1.41    0.21    0.76
  WSL1477              CONDUIT     39.67     0  02:54      3.29    1.57    0.50
  WSL1490              CONDUIT     42.03     0  03:29      1.39    0.68    0.85
  WSL1491              CONDUIT     44.99     0  03:16      1.45    0.26    0.93
  WSL1492              CONDUIT     44.27     0  03:52      1.39    0.68    0.98
  WSL1507              CONDUIT      0.25     0  03:02      0.11    0.00    0.41
  WSL1508              CONDUIT     18.10     0  02:53      0.93    0.51    0.47
  WSL1512              CONDUIT     18.16     0  02:55      0.66    0.13    0.44
  WSL1513              CONDUIT     18.30     0  03:02      0.67    1.08    0.62
  WSL1515              CONDUIT    207.68     0  02:57      3.45    2.03    0.59
  WSL1516              CONDUIT     33.34     0  02:54      5.55    0.12    0.43
  WSL1518              CONDUIT     31.65     0  02:52      1.12    0.62    0.62
  WSL1519              CONDUIT     31.65     0  02:53      1.14    0.79    0.61
  WSL1521              CONDUIT     31.73     0  02:53      1.19    0.91    0.59
  WSL1543              CONDUIT     31.65     0  02:53      1.11    0.99    0.63
  WSL1961              CONDUIT     33.19     0  01:12      3.07    0.07    0.45
  WSL1964              CONDUIT     44.68     0  03:16      1.38    0.24    0.64
  WSL2010              CONDUIT     90.84     0  02:59      1.34    1.16    1.00
  WSL2011              CONDUIT     91.05     0  02:59      1.34    0.59    1.00
  WSL2012              CONDUIT     91.27     0  02:59      1.34    1.39    1.00
  WSL2013              CONDUIT    100.03     0  02:59      1.47    2.48    1.00
  WSL2014              CONDUIT    125.67     0  02:59      1.85    2.01    1.00
  WSL2015              CONDUIT    125.75     0  02:59      1.85    1.69    1.00
  WSL2016              CONDUIT    140.66     0  02:59      2.08    1.62    0.99
  WSL2017              CONDUIT    141.14     0  02:58      2.15    1.72    0.95
  WSL2018              CONDUIT    157.83     0  02:55      2.79    0.94    0.82
  WSL2019              CONDUIT    161.90     0  02:52      2.83    0.96    0.88
  WSL2028              CONDUIT     90.63     0  02:59      1.34    0.97    1.00
  WSL2029              CONDUIT    141.82     0  02:58      2.36    1.79    0.85
  WSL2038              CONDUIT     16.49     0  02:40      0.79    0.82    1.00
  WSL2039              CONDUIT     16.90     0  02:41      1.34    0.87    1.00
  WSL2041              CONDUIT     16.69     0  02:41      0.84    0.82    1.00
  WSL2294              CONDUIT     74.96     0  03:05      1.73    2.52    1.00
  WSL2295              CONDUIT     75.04     0  03:05      1.84    3.37    1.00
  WSL2296              CONDUIT     89.63     0  02:59      2.24    0.50    1.00
  WSL2297              CONDUIT     89.79     0  02:59      1.35    1.72    1.00
  WSL2298              CONDUIT     89.68     0  02:42      2.64    4.13    1.00
  WSL2301              CONDUIT     89.87     0  02:59      1.33    0.83    1.00
  WSL2302              CONDUIT     90.08     0  02:59      1.33    1.11    1.00
  WSL2441              CONDUIT     74.89     0  03:05      1.72    1.92    1.00
  WSL2442              CONDUIT     48.14     0  02:39      1.45    1.23    1.00
  WSL2443              CONDUIT     48.74     0  02:38      1.47    0.76    1.00
  WSL2444              CONDUIT     48.59     0  02:39      1.72    0.77    1.00
  WSL2446              CONDUIT     40.15     0  03:32      1.62    0.69    1.00
  WSL2447              CONDUIT     39.90     0  03:32      1.54    2.05    1.00
  WSL2448              CONDUIT     39.72     0  03:32      1.42    1.12    1.00
  WSL2449              CONDUIT     39.53     0  03:32      1.35    1.38    1.00
  WSL2450              CONDUIT     39.35     0  03:31      1.35    0.82    1.00
  WSL2451              CONDUIT     39.97     0  02:36      1.32    2.61    1.00
  WSL2452              CONDUIT     40.64     0  02:36      1.33    0.78    1.00
  WSL2454              CONDUIT     41.62     0  02:37      1.46    0.97    1.00
  WSL2478              CONDUIT     42.41     0  02:37      1.41    1.50    1.00
  WSL2479              CONDUIT     33.29     0  02:37      1.24    0.63    1.00
  WSL2480              CONDUIT     40.11     0  02:41      1.28    1.86    1.00
  WSL2482              CONDUIT     39.82     0  02:41      1.23    1.04    1.00
  WSL2484              CONDUIT     34.30     0  02:41      1.75    0.48    0.99
  WSL2493              CONDUIT     48.25     0  02:39      1.11    0.81    1.00
  WSL2867              CONDUIT    192.74     0  02:57      4.53    0.40    0.47
  WSL2868              CONDUIT    170.54     0  02:52      2.48    0.32    0.69
  WSL348               CONDUIT     63.17     0  02:41      1.88    0.58    1.00
  WSL175               CONDUIT     63.59     0  02:41      2.29    2.14    1.00
  WSL1467              CONDUIT    198.13     0  02:59      2.13    1.05    0.93
  WSL1473              CONDUIT    206.07     0  02:54      2.44    0.84    0.88
  XRpipe               CONDUIT     64.13     0  02:00      2.54    0.16    1.00
  8                    CONDUIT     27.26     0  02:59      6.40    0.36    0.41
  19                   CONDUIT      0.00     0  00:00      0.00    0.00    0.00
  17                   CONDUIT      0.00     0  00:00      0.00    0.00    0.00
  4                    CONDUIT      0.00     0  00:00      0.00    0.00    0.00
  2                    CONDUIT    230.51     0  02:56      4.56    0.83    0.70
  XR-Pump-1            PUMP         8.12     0  00:08              1.00
  XR-Pump-3            PUMP         8.12     0  00:09              1.00
  XR-Pump-2            PUMP         8.12     0  00:09              1.00
  XR-Pump-4            PUMP         8.12     0  01:10              1.00
  CC-Pump-1            PUMP        17.28     0  01:25              1.00
  CC-Pump-2            PUMP         0.00     0  00:00              0.00
  JK-Pump-1            PUMP         0.00     0  00:00              0.00
  JK-Pump-2            PUMP         0.00     0  00:00              0.00
  
  
  ***************************
  Flow Classification Summary
  ***************************
  
  -------------------------------------------------------------------------------------
                      Adjusted    ---------- Fraction of Time in Flow Class ---------- 
                       /Actual         Up    Down  Sub   Sup   Up    Down  Norm  Inlet 
  Conduit               Length    Dry  Dry   Dry   Crit  Crit  Crit  Crit  Ltd   Ctrl  
  -------------------------------------------------------------------------------------
  WSL49                   1.00   0.00  0.00  0.00  0.99  0.01  0.00  0.00  0.00  0.00
  WSL1465                 1.00   0.00  0.00  0.00  1.00  0.00  0.00  0.00  0.10  0.00
  WSL1472                 1.00   0.00  0.00  0.00  1.00  0.00  0.00  0.00  0.00  0.00
  WSL1475                 1.00   0.00  0.00  0.00  0.14  0.86  0.00  0.00  0.00  0.00
  WSL1476                 1.00   0.00  0.00  0.00  1.00  0.00  0.00  0.00  0.93  0.00
  WSL1477                 1.00   0.00  0.00  0.00  0.00  1.00  0.00  0.00  0.39  0.00
  WSL1490                 1.00   0.00  0.00  0.00  1.00  0.00  0.00  0.00  0.00  0.00
  WSL1491                 1.00   0.00  0.00  0.00  1.00  0.00  0.00  0.00  0.04  0.00
  WSL1492                 1.00   0.00  0.00  0.00  1.00  0.00  0.00  0.00  0.00  0.00
  WSL1507                 1.00   0.00  0.00  0.00  1.00  0.00  0.00  0.00  0.37  0.00
  WSL1508                 1.00   0.00  0.00  0.00  1.00  0.00  0.00  0.00  0.00  0.00
  WSL1512                 1.00   0.00  0.00  0.00  1.00  0.00  0.00  0.00  0.61  0.00
  WSL1513                 1.00   0.00  0.00  0.00  1.00  0.00  0.00  0.00  0.00  0.00
  WSL1515                 1.00   0.00  0.00  0.00  0.14  0.86  0.00  0.00  0.04  0.00
  WSL1516                 1.00   0.00  0.00  0.00  0.00  1.00  0.00  0.00  0.92  0.00
  WSL1518                 1.00   0.00  0.00  0.00  1.00  0.00  0.00  0.00  0.34  0.00
  WSL1519                 1.00   0.00  0.00  0.00  1.00  0.00  0.00  0.00  0.30  0.00
  WSL1521                 1.00   0.00  0.00  0.00  1.00  0.00  0.00  0.00  0.02  0.00
  WSL1543                 1.00   0.00  0.00  0.00  1.00  0.00  0.00  0.00  0.02  0.00
  WSL1961                 1.00   0.00  0.00  0.00  0.53  0.47  0.00  0.00  0.98  0.00
  WSL1964                 1.00   0.00  0.00  0.00  1.00  0.00  0.00  0.00  0.05  0.00
  WSL2010                 1.00   0.00  0.00  0.00  1.00  0.00  0.00  0.00  0.02  0.00
  WSL2011                 1.00   0.00  0.00  0.00  1.00  0.00  0.00  0.00  0.27  0.00
  WSL2012                 1.00   0.00  0.00  0.00  1.00  0.00  0.00  0.00  0.00  0.00
  WSL2013                 1.00   0.00  0.00  0.00  1.00  0.00  0.00  0.00  0.00  0.00
  WSL2014                 1.00   0.00  0.00  0.00  1.00  0.00  0.00  0.00  0.00  0.00
  WSL2015                 1.00   0.00  0.00  0.00  1.00  0.00  0.00  0.00  0.02  0.00
  WSL2016                 1.00   0.00  0.00  0.00  1.00  0.00  0.00  0.00  0.01  0.00
  WSL2017                 1.00   0.00  0.00  0.00  1.00  0.00  0.00  0.00  0.04  0.00
  WSL2018                 1.00   0.00  0.00  0.00  0.41  0.59  0.00  0.00  0.07  0.00
  WSL2019                 1.00   0.00  0.00  0.00  0.84  0.16  0.00  0.00  0.11  0.00
  WSL2028                 1.00   0.00  0.00  0.00  1.00  0.00  0.00  0.00  0.06  0.00
  WSL2029                 1.00   0.00  0.00  0.00  0.98  0.02  0.00  0.00  0.00  0.00
  WSL2038                 1.00   0.00  0.00  0.00  1.00  0.00  0.00  0.00  0.02  0.00
  WSL2039                 1.00   0.00  0.00  0.00  0.98  0.02  0.00  0.00  0.01  0.00
  WSL2041                 1.00   0.00  0.00  0.00  1.00  0.00  0.00  0.00  0.27  0.00
  WSL2294                 1.00   0.00  0.00  0.00  1.00  0.00  0.00  0.00  0.00  0.00
  WSL2295                 1.00   0.00  0.00  0.00  1.00  0.00  0.00  0.00  0.00  0.00
  WSL2296                 1.00   0.00  0.00  0.00  0.81  0.19  0.00  0.00  0.43  0.00
  WSL2297                 1.00   0.00  0.00  0.00  1.00  0.00  0.00  0.00  0.00  0.00
  WSL2298                 1.00   0.00  0.00  0.00  0.47  0.53  0.00  0.00  0.00  0.00
  WSL2301                 1.00   0.00  0.00  0.00  1.00  0.00  0.00  0.00  0.09  0.00
  WSL2302                 1.00   0.00  0.00  0.00  1.00  0.00  0.00  0.00  0.02  0.00
  WSL2441                 1.00   0.00  0.00  0.00  1.00  0.00  0.00  0.00  0.00  0.00
  WSL2442                 1.00   0.00  0.00  0.00  1.00  0.00  0.00  0.00  0.19  0.00
  WSL2443                 1.00   0.00  0.00  0.00  1.00  0.00  0.00  0.00  0.31  0.00
  WSL2444                 1.00   0.00  0.00  0.00  0.81  0.19  0.00  0.00  0.20  0.00
  WSL2446                 1.00   0.00  0.00  0.00  0.88  0.12  0.00  0.00  0.03  0.00
  WSL2447                 1.00   0.00  0.00  0.00  1.00  0.00  0.00  0.00  0.00  0.00
  WSL2448                 1.00   0.00  0.00  0.00  1.00  0.00  0.00  0.00  0.01  0.00
  WSL2449                 1.00   0.00  0.00  0.00  1.00  0.00  0.00  0.00  0.03  0.00
  WSL2450                 1.00   0.00  0.00  0.00  1.00  0.00  0.00  0.00  0.36  0.00
  WSL2451                 1.00   0.00  0.00  0.00  1.00  0.00  0.00  0.00  0.00  0.00
  WSL2452                 1.00   0.00  0.00  0.00  1.00  0.00  0.00  0.00  0.38  0.00
  WSL2454                 1.00   0.00  0.00  0.00  1.00  0.00  0.00  0.00  0.02  0.00
  WSL2478                 1.00   0.00  0.00  0.00  1.00  0.00  0.00  0.00  0.00  0.00
  WSL2479                 1.00   0.00  0.00  0.00  1.00  0.00  0.00  0.00  0.36  0.00
  WSL2480                 1.00   0.00  0.00  0.00  1.00  0.00  0.00  0.00  0.00  0.00
  WSL2482                 1.00   0.00  0.00  0.00  1.00  0.00  0.00  0.00  0.37  0.00
  WSL2484                 1.00   0.00  0.00  0.00  0.99  0.01  0.00  0.00  0.38  0.00
  WSL2493                 1.00   0.00  0.00  0.00  1.00  0.00  0.00  0.00  0.05  0.00
  WSL2867                 1.00   0.00  0.00  0.00  0.00  1.00  0.00  0.00  0.16  0.00
  WSL2868                 1.00   0.00  0.00  0.00  0.98  0.02  0.00  0.00  0.50  0.00
  WSL348                  1.00   0.00  0.00  0.00  1.00  0.00  0.00  0.00  0.01  0.00
  WSL175                  1.00   0.00  0.00  0.00  1.00  0.00  0.00  0.00  0.00  0.00
  WSL1467                 1.00   0.00  0.00  0.00  1.00  0.00  0.00  0.00  0.06  0.00
  WSL1473                 1.00   0.00  0.00  0.00  1.00  0.00  0.00  0.00  0.05  0.00
  XRpipe                  1.00   0.00  0.00  0.00  1.00  0.00  0.00  0.00  0.01  0.00
  8                       1.00   0.47  0.00  0.00  0.00  0.53  0.00  0.00  0.09  0.00
  19                      1.00   1.00  0.00  0.00  0.00  0.00  0.00  0.00  0.00  0.00
  17                      1.00   1.00  0.00  0.00  0.00  0.00  0.00  0.00  0.00  0.00
  4                       1.00   1.00  0.00  0.00  0.00  0.00  0.00  0.00  0.00  0.00
  2                       1.00   0.00  0.00  0.00  0.00  1.00  0.00  0.00  0.16  0.00
  
  
  *************************
  Conduit Surcharge Summary
  *************************
  
  ----------------------------------------------------------------------------
                                                           Hours        Hours 
                         --------- Hours Full --------   Above Full   Capacity
  Conduit                Both Ends  Upstream  Dnstream   Normal Flow   Limited
  ----------------------------------------------------------------------------
  WSL49                       0.01      0.01      0.01      2.07         0.01
  WSL1465                     0.01      0.01      0.42      0.01         0.01
  WSL1472                     0.01      0.01      0.01      1.94         0.01
  WSL1475                     0.01      0.01      0.01      1.92         0.01
  WSL1476                     0.01      0.01      1.46      0.01         0.01
  WSL1477                     0.01      0.01      0.01      0.42         0.01
  WSL1492                     0.01      0.01      0.01      0.01         0.01
  WSL1513                     0.01      0.01      0.01      0.33         0.01
  WSL1515                     0.01      0.01      0.01      1.19         0.01
  WSL2010                     0.55      0.57      0.55      0.87         0.54
  WSL2011                     0.55      0.55      0.72      0.01         0.01
  WSL2012                     0.71      0.72      0.71      1.37         0.70
  WSL2013                     0.59      0.71      0.59      2.02         0.59
  WSL2014                     0.43      0.59      0.43      1.69         0.43
  WSL2015                     0.32      0.43      0.32      1.54         0.32
  WSL2016                     0.01      0.32      0.01      1.48         0.01
  WSL2017                     0.01      0.01      0.01      1.53         0.01
  WSL2028                     0.55      0.55      0.57      0.01         0.01
  WSL2029                     0.01      0.01      0.01      1.55         0.01
  WSL2038                     0.37      0.37      0.39      0.01         0.01
  WSL2039                     0.42      0.42      0.44      0.01         0.01
  WSL2041                     0.39      0.39      0.42      0.01         0.01
  WSL2294                     0.62      0.95      0.62      2.12         0.62
  WSL2295                     0.49      0.62      0.49      2.25         0.49
  WSL2296                     0.34      0.34      1.04      0.01         0.01
  WSL2297                     0.50      0.55      0.50      1.69         0.50
  WSL2298                     0.34      0.49      0.34      2.29         0.34
  WSL2301                     0.50      0.50      0.55      0.01         0.01
  WSL2302                     0.55      0.55      0.55      0.69         0.53
  WSL2441                     0.95      1.16      0.95      1.86         0.95
  WSL2442                     1.43      1.44      1.45      1.20         1.13
  WSL2443                     1.17      1.17      1.44      0.01         0.01
  WSL2444                     1.00      1.00      1.17      0.01         0.01
  WSL2446                     0.73      0.73      1.00      0.01         0.01
  WSL2447                     0.73      0.81      0.73      2.29         0.73
  WSL2448                     0.81      0.82      0.81      0.76         0.26
  WSL2449                     0.82      0.91      0.82      1.54         0.54
  WSL2450                     0.80      0.80      0.91      0.01         0.01
  WSL2451                     0.80      0.94      0.80      2.35         0.80
  WSL2452                     0.79      0.79      0.94      0.01         0.01
  WSL2454                     0.72      0.72      0.79      0.01         0.01
  WSL2478                     0.72      0.77      0.72      1.57         0.43
  WSL2479                     0.52      0.52      0.77      0.01         0.01
  WSL2480                     0.52      0.56      0.52      2.22         0.52
  WSL2482                     0.48      0.48      0.56      0.28         0.26
  WSL2484                     0.01      0.01      0.48      0.01         0.01
  WSL2493                     1.09      1.09      1.16      0.01         0.01
  WSL348                      3.87      3.87      3.88      0.01         0.01
  WSL175                      3.88      3.88      3.88      2.72         2.81
  WSL1467                     0.01      0.01      0.01      0.13         0.01
  XRpipe                      3.88      3.88      3.96      0.01         0.01
  
  
  ***************
  Pumping Summary
  ***************
  
  ---------------------------------------------------------------------------------------------------------
                                                  Min       Avg       Max     Total     Power    % Time Off
                        Percent   Number of      Flow      Flow      Flow    Volume     Usage    Pump Curve
  Pump                 Utilized   Start-Ups       MLD       MLD       MLD  10^6 ltr     Kw-hr    Low   High
  ---------------------------------------------------------------------------------------------------------
  XR-Pump-1               96.32           1      0.00      8.12      8.12     1.303      6.25    0.0    0.0
  XR-Pump-3               91.52          17      0.00      8.12      8.12     1.239      5.77    0.0    0.0
  XR-Pump-2               96.18           1      0.00      8.12      8.12     1.301      6.24    0.0    0.0
  XR-Pump-4               69.08           6      0.00      8.12      8.12     0.935      3.50    0.0    0.0
  CC-Pump-1               60.50           2      0.00     17.28     17.28     1.742      3.35    0.0    0.0
  CC-Pump-2                0.00           0      0.00      0.00      0.00     0.000      0.00    0.0    0.0
  JK-Pump-1                0.00           0      0.00      0.00      0.00     0.000      0.00    0.0    0.0
  JK-Pump-2                0.00           0      0.00      0.00      0.00     0.000      0.00    0.0    0.0
  
  
  ***************************
  Link Pollutant Load Summary
  ***************************
  
  ------------------------------------------------------------------------------------------
                                 COD         NH3-N            TN            TP            SS
  Link                            kg            kg            kg            kg            kg
  ------------------------------------------------------------------------------------------
  WSL49                     3342.531         0.000         0.000         0.000         0.000
  WSL1465                    933.968         0.000         0.000         0.000         0.000
  WSL1472                   2937.837         0.000         0.000         0.000         0.000
  WSL1475                   3360.679         0.000         0.000         0.000         0.000
  WSL1476                    408.332         0.000         0.000         0.000         0.000
  WSL1477                    405.900         0.000         0.000         0.000         0.000
  WSL1490                    924.026         0.000         0.000         0.000         0.000
  WSL1491                    925.623         0.000         0.000         0.000         0.000
  WSL1492                    932.849         0.000         0.000         0.000         0.000
  WSL1507                      2.564         0.000         0.000         0.000         0.000
  WSL1508                    243.688         0.000         0.000         0.000         0.000
  WSL1512                    242.883         0.000         0.000         0.000         0.000
  WSL1513                    244.483         0.000         0.000         0.000         0.000
  WSL1515                   2001.526         0.000         0.000         0.000         0.000
  WSL1516                    406.243         0.000         0.000         0.000         0.000
  WSL1518                    406.219         0.000         0.000         0.000         0.000
  WSL1519                    405.709         0.000         0.000         0.000         0.000
  WSL1521                    406.185         0.000         0.000         0.000         0.000
  WSL1543                    405.116         0.000         0.000         0.000         0.000
  WSL1961                    911.140         0.000         0.000         0.000         0.000
  WSL1964                    920.531         0.000         0.000         0.000         0.000
  WSL2010                   1153.605         0.000         0.000         0.000         0.000
  WSL2011                   1157.128         0.000         0.000         0.000         0.000
  WSL2012                   1161.500         0.000         0.000         0.000         0.000
  WSL2013                   1268.950         0.000         0.000         0.000         0.000
  WSL2014                   1620.866         0.000         0.000         0.000         0.000
  WSL2015                   1619.795         0.000         0.000         0.000         0.000
  WSL2016                   1806.770         0.000         0.000         0.000         0.000
  WSL2017                   1807.307         0.000         0.000         0.000         0.000
  WSL2018                   1997.201         0.000         0.000         0.000         0.000
  WSL2019                   1997.644         0.000         0.000         0.000         0.000
  WSL2028                   1150.171         0.000         0.000         0.000         0.000
  WSL2029                   1810.956         0.000         0.000         0.000         0.000
  WSL2038                    191.750         0.000         0.000         0.000         0.000
  WSL2039                    197.622         0.000         0.000         0.000         0.000
  WSL2041                    195.231         0.000         0.000         0.000         0.000
  WSL2294                   1138.139         0.000         0.000         0.000         0.000
  WSL2295                   1138.050         0.000         0.000         0.000         0.000
  WSL2296                   1145.647         0.000         0.000         0.000         0.000
  WSL2297                   1148.730         0.000         0.000         0.000         0.000
  WSL2298                   1140.926         0.000         0.000         0.000         0.000
  WSL2301                   1147.902         0.000         0.000         0.000         0.000
  WSL2302                   1151.602         0.000         0.000         0.000         0.000
  WSL2441                   1138.192         0.000         0.000         0.000         0.000
  WSL2442                    622.233         0.000         0.000         0.000         0.000
  WSL2443                    622.533         0.000         0.000         0.000         0.000
  WSL2444                    620.376         0.000         0.000         0.000         0.000
  WSL2446                    619.254         0.000         0.000         0.000         0.000
  WSL2447                    616.305         0.000         0.000         0.000         0.000
  WSL2448                    612.773         0.000         0.000         0.000         0.000
  WSL2449                    610.204         0.000         0.000         0.000         0.000
  WSL2450                    608.453         0.000         0.000         0.000         0.000
  WSL2451                    608.205         0.000         0.000         0.000         0.000
  WSL2452                    607.525         0.000         0.000         0.000         0.000
  WSL2454                    604.346         0.000         0.000         0.000         0.000
  WSL2478                    603.176         0.000         0.000         0.000         0.000
  WSL2479                    473.142         0.000         0.000         0.000         0.000
  WSL2480                    619.113         0.000         0.000         0.000         0.000
  WSL2482                    615.893         0.000         0.000         0.000         0.000
  WSL2484                    551.189         0.000         0.000         0.000         0.000
  WSL2493                    624.046         0.000         0.000         0.000         0.000
  WSL2867                   2000.765         0.000         0.000         0.000         0.000
  WSL2868                   2005.957         0.000         0.000         0.000         0.000
  WSL348                    1537.084         0.000         0.000         0.000         0.000
  WSL175                    1544.583         0.000         0.000         0.000         0.000
  WSL1467                   2936.652         0.000         0.000         0.000         0.000
  WSL1473                   2937.938         0.000         0.000         0.000         0.000
  XRpipe                    1557.994         0.000         0.000         0.000         0.000
  8                          148.576         0.000         0.000         0.000         0.000
  19                           0.000         0.000         0.000         0.000         0.000
  17                           0.000         0.000         0.000         0.000         0.000
  4                            0.000         0.000         0.000         0.000         0.000
  2                         3376.647         0.000         0.000         0.000         0.000
  XR-Pump-1                  242.480         0.000         0.000         0.000         0.000
  XR-Pump-3                  231.651         0.000         0.000         0.000         0.000
  XR-Pump-2                  242.166         0.000         0.000         0.000         0.000
  XR-Pump-4                  181.177         0.000         0.000         0.000         0.000
  CC-Pump-1                  351.969         0.000         0.000         0.000         0.000
  CC-Pump-2                    0.000         0.000         0.000         0.000         0.000
  JK-Pump-1                    0.000         0.000         0.000         0.000         0.000
  JK-Pump-2                    0.000         0.000         0.000         0.000         0.000
  

  Analysis begun on:  Tue Mar 19 20:20:44 2019
  Analysis ended on:  Tue Mar 19 20:20:45 2019
  Total elapsed time: 00:00:01