
  EPA STORM WATER MANAGEMENT MODEL - VERSION 5.1 (Build 5.2.0.dev1)
  --------------------------------------------------------------

  
  *********************************************************
  NOTE: The summary statistics displayed in this report are
  based on results found at every computational time step,  
  not just on results from each reporting time step.
  *********************************************************
  
  ****************
  Analysis Options
  ****************
  Flow Units ............... MLD
  Process Models:
    Rainfall/Runoff ........ YES
    RDII ................... NO
    Snowmelt ............... NO
    Groundwater ............ NO
    Flow Routing ........... YES
    Ponding Allowed ........ NO
    Water Quality .......... YES
  Infiltration Method ...... GREEN_AMPT
  Flow Routing Method ...... DYNWAVE
  Starting Date ............ 08/28/2015 08:00:00
  Ending Date .............. 08/28/2015 12:00:00
  Antecedent Dry Days ...... 4.0
  Report Time Step ......... 00:01:00
  Wet Time Step ............ 00:01:00
  Dry Time Step ............ 00:01:00
  Routing Time Step ........ 5.00 sec
  Variable Time Step ....... YES
  Maximum Trials ........... 8
  Number of Threads ........ 1
  Head Tolerance ........... 0.001500 m
  
  
  **************************        Volume         Depth
  Runoff Quantity Continuity     hectare-m            mm
  **************************     ---------       -------
  Total Precipitation ......         4.874        17.282
  Evaporation Loss .........         0.000         0.000
  Infiltration Loss ........         2.138         7.582
  Surface Runoff ...........         1.194         4.233
  Final Storage ............         1.545         5.477
  Continuity Error (%) .....        -0.057
  
  
  **************************           COD         NH3-N            TN            TP            SS
  Runoff Quality Continuity             kg            kg            kg            kg            kg
  **************************    ----------    ----------    ----------    ----------    ----------
  Initial Buildup ..........     13074.240         0.000         0.000         0.000         0.000
  Surface Buildup ..........       109.398         0.000         0.000         0.000         0.000
  Wet Deposition ...........         0.000         0.000         0.000         0.000         0.000
  Sweeping Removal .........         0.000         0.000         0.000         0.000         0.000
  Infiltration Loss ........       149.283         0.000         0.000         0.000         0.000
  BMP Removal ..............         0.000         0.000         0.000         0.000         0.000
  Surface Runoff ...........      1875.850         0.000         0.000         0.000         0.000
  Remaining Buildup ........     11156.087         0.000         0.000         0.000         0.000
  Continuity Error (%) .....         0.018         0.000         0.000         0.000         0.000
  
  
  **************************        Volume        Volume
  Flow Routing Continuity        hectare-m      10^6 ltr
  **************************     ---------     ---------
  Dry Weather Inflow .......         0.000         0.000
  Wet Weather Inflow .......         1.190        11.903
  Groundwater Inflow .......         0.000         0.000
  RDII Inflow ..............         0.000         0.000
  External Inflow ..........         0.561         5.611
  External Outflow .........         0.971         9.711
  Flooding Loss ............         0.675         6.747
  Evaporation Loss .........         0.000         0.000
  Exfiltration Loss ........         0.000         0.000
  Initial Stored Volume ....         0.000         0.000
  Final Stored Volume ......         0.106         1.059
  Continuity Error (%) .....        -0.014
  
  
  **************************           COD         NH3-N            TN            TP            SS
  Quality Routing Continuity            kg            kg            kg            kg            kg
  **************************    ----------    ----------    ----------    ----------    ----------
  Dry Weather Inflow .......         0.000         0.000         0.000         0.000         0.000
  Wet Weather Inflow .......      1871.583         0.000         0.000         0.000         0.000
  Groundwater Inflow .......         0.000         0.000         0.000         0.000         0.000
  RDII Inflow ..............         0.000         0.000         0.000         0.000         0.000
  External Inflow ..........       937.013         0.000         0.000         0.000         0.000
  External Outflow .........      1622.565         0.000         0.000         0.000         0.000
  Flooding Loss ............      1041.884         0.000         0.000         0.000         0.000
  Exfiltration Loss ........         0.000         0.000         0.000         0.000         0.000
  Mass Reacted .............         0.000         0.000         0.000         0.000         0.000
  Initial Stored Mass ......         0.000         0.000         0.000         0.000         0.000
  Final Stored Mass ........       142.678         0.000         0.000         0.000         0.000
  Continuity Error (%) .....         0.052         0.000         0.000         0.000         0.000
  
  
  *************************
  Highest Continuity Errors
  *************************
  Node WS02003099 (1.26%)
  
  
  ***************************
  Time-Step Critical Elements
  ***************************
  Link WSL2448 (41.54%)
  Link WSL1477 (38.62%)
  Link WSL2867 (1.10%)
  
  
  ********************************
  Highest Flow Instability Indexes
  ********************************
  Link WSL1477 (83)
  Link WSL1516 (77)
  Link WSL1515 (24)
  Link XRpipe (22)
  Link WSL175 (20)
  
  
  *************************
  Routing Time Step Summary
  *************************
  Minimum Time Step           :     0.18 sec
  Average Time Step           :     2.92 sec
  Maximum Time Step           :     5.00 sec
  Percent in Steady State     :    -0.00
  Average Iterations per Step :     3.45
  Percent Not Converging      :    13.20
  
  
  ***************************
  Subcatchment Runoff Summary
  ***************************
  
  --------------------------------------------------------------------------------------------------------
                            Total      Total      Total      Total      Total       Total     Peak  Runoff
                           Precip      Runon       Evap      Infil     Runoff      Runoff   Runoff   Coeff
  Subcatchment                 mm         mm         mm         mm         mm    10^6 ltr      MLD
  --------------------------------------------------------------------------------------------------------
  1                         17.28      18.68       0.00       9.15      16.13        0.20     4.29   0.449
  2                         17.28       0.00       0.00       7.44       5.56        0.19     4.90   0.322
  3                         17.28       0.00       0.00       7.47       5.28        0.27     6.89   0.305
  4                         17.28       0.00       0.00       7.42       5.73        0.15     4.03   0.332
  5                         17.28      13.71       0.00       8.94      13.05        0.22     5.15   0.421
  6                         17.28       0.00       0.00       7.47       5.30        0.26     6.72   0.306
  7                         17.28       0.00       0.00       7.43       4.55        7.28   141.13   0.263
  8                         17.28       0.00       0.00       7.46       5.40        0.23     5.92   0.312
  9                         17.28       5.33       0.00       8.15       7.67        0.29     7.05   0.339
  17                        17.28       0.00       0.00       7.45       5.50        0.20     5.25   0.318
  18                        17.28       0.00       0.00       7.46       5.38        0.23     6.03   0.312
  28                        17.28      17.24       0.00       9.23      13.52        0.36     7.71   0.392
  29                        17.28       7.29       0.00       8.20       8.84        0.21     5.05   0.360
  30                        17.28      21.03       0.00       9.42      18.98        0.18     4.03   0.495
  31                        17.28       0.00       0.00       7.44       5.52        0.20     5.11   0.320
  33                        17.28       0.00       0.00       7.27       6.65        0.06     1.62   0.385
  34                        17.28      11.91       0.00       8.81      11.71        0.24     5.69   0.401
  35                        17.28       0.00       0.00       7.43       5.64        0.17     4.49   0.326
  36                        17.28      10.95       0.00       8.83       9.41        0.56    12.52   0.333
  39                        17.28       0.00       0.00       7.44       5.55        0.19     4.95   0.321
  40                        17.28       2.96       0.00       7.86       6.64        0.26     6.48   0.328
  41                        17.28       0.00       0.00       7.38       5.97        0.12     3.11   0.345
  42                        17.28       0.00       0.00       7.40       5.85        0.13     3.55   0.338
  43                        17.28       0.00       0.00       7.12       7.48        0.03     0.79   0.433
  44                        17.28     156.61       0.00      14.30     131.53        0.49     9.62   0.756
  45                        17.28       0.00       0.00       7.30       6.50        0.07     1.85   0.376
  46                        17.28       9.23       0.00       8.49      10.17        0.22     5.20   0.384
  47                        17.28       0.00       0.00       7.31       6.43        0.07     1.97   0.372
  48                        17.28       4.51       0.00       7.93       8.30        0.13     3.35   0.381
  55                        17.28       6.74       0.00       8.05      10.39        0.09     2.21   0.432
  56                        17.28      10.15       0.00       8.58      10.61        0.23     5.36   0.387
  57                        17.28       0.00       0.00       7.47       5.29        0.26     6.78   0.306
  59                        17.28       0.00       0.00       7.27       6.68        0.06     1.57   0.386
  60                        17.28      14.65       0.00       8.68      16.28        0.08     2.08   0.510
  61                        17.28       0.00       0.00       7.55       4.50        0.81    19.54   0.261
  62                        17.28       0.00       0.00       7.56       4.47        0.85    20.43   0.259
  64                        17.28       0.00       0.00       7.32       6.36        0.08     2.10   0.368
  
  
  ****************************
  Subcatchment Washoff Summary
  ****************************
  
  ------------------------------------------------------------------------------------------
                                 COD         NH3-N            TN            TP            SS
  Subcatchment                    kg            kg            kg            kg            kg
  ------------------------------------------------------------------------------------------
  1                           29.165         0.000         0.000         0.000         0.000
  2                            0.000         0.000         0.000         0.000         0.000
  3                            0.000         0.000         0.000         0.000         0.000
  4                           25.282         0.000         0.000         0.000         0.000
  5                           67.910         0.000         0.000         0.000         0.000
  6                           40.825         0.000         0.000         0.000         0.000
  7                         1035.162         0.000         0.000         0.000         0.000
  8                           36.259         0.000         0.000         0.000         0.000
  9                           67.267         0.000         0.000         0.000         0.000
  17                          32.420         0.000         0.000         0.000         0.000
  18                          36.920         0.000         0.000         0.000         0.000
  28                         133.159         0.000         0.000         0.000         0.000
  29                          62.864         0.000         0.000         0.000         0.000
  30                          54.441         0.000         0.000         0.000         0.000
  31                          31.596         0.000         0.000         0.000         0.000
  33                          10.762         0.000         0.000         0.000         0.000
  34                          72.861         0.000         0.000         0.000         0.000
  35                          27.954         0.000         0.000         0.000         0.000
  36                         164.354         0.000         0.000         0.000         0.000
  39                          30.628         0.000         0.000         0.000         0.000
  40                          52.850         0.000         0.000         0.000         0.000
  41                          19.833         0.000         0.000         0.000         0.000
  42                          22.450         0.000         0.000         0.000         0.000
  43                           5.508         0.000         0.000         0.000         0.000
  44                         148.367         0.000         0.000         0.000         0.000
  45                          12.234         0.000         0.000         0.000         0.000
  46                          64.502         0.000         0.000         0.000         0.000
  47                          12.950         0.000         0.000         0.000         0.000
  48                          31.750         0.000         0.000         0.000         0.000
  55                          24.138         0.000         0.000         0.000         0.000
  56                          69.708         0.000         0.000         0.000         0.000
  57                          41.210         0.000         0.000         0.000         0.000
  59                          10.480         0.000         0.000         0.000         0.000
  60                          26.845         0.000         0.000         0.000         0.000
  61                         111.205         0.000         0.000         0.000         0.000
  62                         115.902         0.000         0.000         0.000         0.000
  64                          13.741         0.000         0.000         0.000         0.000
  ------------------------------------------------------------------------------------------
  System                    2743.501         0.000         0.000         0.000         0.000
  
  
  ******************
  Node Depth Summary
  ******************
  
  ---------------------------------------------------------------------------------
                                 Average  Maximum  Maximum  Time of Max    Reported
                                   Depth    Depth      HGL   Occurrence   Max Depth
  Node                 Type       Meters   Meters   Meters  days hr:min      Meters
  ---------------------------------------------------------------------------------
  WS01000070           JUNCTION     0.00     0.00     0.00     0  00:00        0.00
  WS01000323           JUNCTION     0.00     0.00     0.00     0  00:00        0.00
  WS01000533           JUNCTION     0.00     0.00     6.86     0  00:00        0.00
  WS01005172           JUNCTION     0.00     0.00     0.00     0  00:00        0.00
  WS01005181           JUNCTION     0.00     0.00     0.00     0  00:00        0.00
  WS01009841           JUNCTION     0.00     0.00     0.00     0  00:00        0.00
  WS02000078           JUNCTION     0.00     0.00     0.00     0  00:00        0.00
  WS02000112           JUNCTION     0.00     0.00     0.00     0  00:00        0.00
  WS02000136           JUNCTION     0.00     0.00     0.00     0  00:00        0.00
  WS02001211           JUNCTION     0.42     0.50     5.34     0  03:12        0.50
  WS02001212           JUNCTION     0.36     0.48     5.28     0  03:11        0.48
  WS02001213           JUNCTION     0.46     0.58     5.28     0  03:10        0.58
  WS02003059           JUNCTION     0.43     0.62     5.27     0  03:10        0.62
  WS02003060           JUNCTION     0.49     0.71     5.26     0  03:09        0.70
  WS02003066           JUNCTION     0.19     0.37     5.67     0  03:06        0.35
  WS02003067           JUNCTION     0.33     0.61     5.93     0  03:06        0.60
  WS02003071           JUNCTION     0.54     0.77     5.17     0  03:08        0.77
  WS02003072           JUNCTION     0.45     0.69     5.06     0  03:08        0.68
  WS02003073           JUNCTION     0.53     0.81     5.05     0  03:07        0.79
  WS02003076           JUNCTION     0.48     0.75     4.98     0  03:06        0.73
  WS02003077           JUNCTION     0.07     0.13     5.14     0  03:04        0.13
  WS02003078           JUNCTION     0.05     0.08     6.98     0  03:04        0.08
  WS02003079           JUNCTION     0.14     0.26     7.17     0  03:04        0.26
  WS02003093           JUNCTION     0.03     0.10     7.44     0  03:01        0.10
  WS02003094           JUNCTION     0.13     0.22     7.44     0  03:01        0.22
  WS02003098           JUNCTION     0.08     0.15     7.32     0  03:03        0.15
  WS02003099           JUNCTION     0.16     0.29     7.33     0  03:02        0.29
  WS02003102           JUNCTION     0.14     0.27     7.30     0  03:02        0.27
  WS02003103           JUNCTION     0.16     0.30     7.27     0  03:03        0.30
  WS02003104           JUNCTION     0.16     0.29     7.25     0  03:03        0.29
  WS02003106           JUNCTION     0.16     0.28     7.21     0  03:04        0.28
  WS02004050           JUNCTION     0.33     0.48     4.70     0  03:09        0.48
  WS02004053           JUNCTION     0.00     0.00     0.00     0  00:00        0.00
  WS02004136           JUNCTION     0.17     0.18     6.91     0  01:20        0.18
  WS02004139           JUNCTION     0.35     0.40     5.36     0  03:13        0.39
  WS02004401           JUNCTION     0.32     0.58     6.58     0  03:05        0.58
  WS02004402           JUNCTION     0.33     0.60     6.56     0  03:05        0.60
  WS02004403           JUNCTION     0.32     0.60     6.53     0  03:05        0.60
  WS02004404           JUNCTION     0.40     0.68     6.53     0  03:05        0.68
  WS02004405           JUNCTION     0.40     0.68     6.52     0  03:05        0.68
  WS02004406           JUNCTION     0.39     0.65     6.48     0  03:05        0.65
  WS02004407           JUNCTION     0.36     0.62     6.42     0  03:05        0.62
  WS02004409           JUNCTION     0.35     0.60     6.37     0  03:06        0.60
  WS02004410           JUNCTION     0.34     0.58     6.30     0  03:05        0.58
  WS02004411           JUNCTION     0.32     0.54     6.22     0  03:05        0.54
  WS02004412           JUNCTION     0.27     0.48     6.12     0  03:05        0.48
  WS02004413           JUNCTION     0.29     0.51     5.98     0  03:06        0.51
  WS02004997           JUNCTION     5.41     6.68     8.29     0  03:00        6.68
  WS02005192           JUNCTION     0.16     0.28     8.15     0  03:01        0.28
  WS02005193           JUNCTION     0.18     0.31     8.13     0  03:01        0.31
  WS02005196           JUNCTION     0.17     0.29     8.14     0  03:01        0.29
  WS02006109           JUNCTION     0.37     0.61     7.23     0  03:05        0.61
  WS02006110           JUNCTION     0.34     0.56     7.16     0  03:05        0.56
  WS02006111           JUNCTION     0.18     0.33     6.91     0  03:05        0.33
  WS02006112           JUNCTION     0.35     0.59     6.71     0  03:05        0.59
  WS02006113           JUNCTION     0.29     0.47     7.06     0  03:04        0.47
  WS02006115           JUNCTION     0.30     0.55     6.65     0  03:06        0.55
  WS02006116           JUNCTION     0.33     0.58     6.62     0  03:06        0.58
  WS02006183           JUNCTION     0.00     0.00     0.00     0  00:00        0.00
  WS02006228           JUNCTION     0.37     0.63     7.28     0  03:05        0.63
  WS02006229           JUNCTION     0.34     0.60     7.29     0  03:05        0.60
  WS02006230           JUNCTION     0.32     0.59     7.34     0  03:05        0.59
  WS02006231           JUNCTION     0.24     0.46     7.36     0  03:05        0.46
  WS02006232           JUNCTION     0.23     0.41     7.44     0  03:04        0.41
  WS02006234           JUNCTION     0.22     0.38     7.54     0  03:04        0.38
  WS02006235           JUNCTION     0.27     0.44     7.61     0  03:04        0.44
  WS02006238           JUNCTION     0.27     0.45     7.63     0  03:04        0.45
  WS02006239           JUNCTION     0.29     0.48     7.69     0  03:04        0.48
  WS02006242           JUNCTION     0.30     0.52     7.82     0  03:03        0.52
  WS02006240           JUNCTION     0.25     0.45     7.74     0  03:04        0.45
  WS02006243           JUNCTION     0.24     0.44     7.86     0  03:03        0.44
  WS02006245           JUNCTION     0.25     0.44     7.93     0  03:03        0.44
  WS02006247           JUNCTION     0.27     0.47     7.98     0  03:02        0.47
  WS02006248           JUNCTION     0.22     0.41     8.00     0  03:02        0.41
  WS02006249           JUNCTION     0.25     0.44     8.04     0  03:02        0.44
  WS02006251           JUNCTION     0.23     0.43     8.10     0  03:02        0.43
  WS02006253           JUNCTION     0.17     0.33     8.13     0  03:01        0.33
  WS02618401           JUNCTION     0.00     0.00     0.00     0  00:00        0.00
  WS8802               JUNCTION     0.00     0.00     4.38     0  00:00        0.00
  WSA1649              JUNCTION     0.00     0.00     0.00     0  00:00        0.00
  WSF200               JUNCTION     0.18     0.36     5.46     0  03:10        0.34
  XR-Inflow            JUNCTION     5.26     6.55     8.36     0  02:19        6.55
  WS02004114           JUNCTION     5.39     6.65     8.25     0  03:00        6.65
  outfall-2            OUTFALL      0.00     0.00     7.00     0  00:00        0.00
  outfall-5            OUTFALL      0.00     0.00     7.67     0  00:00        0.00
  outfall-14           OUTFALL      0.00     0.00     7.66     0  00:00        0.00
  outfall-16           OUTFALL      0.00     0.00     8.39     0  00:00        0.00
  12                   OUTFALL      0.33     0.47     0.47     0  03:09        0.47
  XR-storage           STORAGE      6.47     7.72     8.22     0  01:53        7.72
  CC-storage           STORAGE      3.42     5.03     8.21     0  01:56        5.02
  JK-storage           STORAGE      3.97     4.80     7.80     0  01:47        4.80
  
  
  *******************
  Node Inflow Summary
  *******************
  
  -------------------------------------------------------------------------------------------------
                                  Maximum  Maximum                  Lateral       Total        Flow
                                  Lateral    Total  Time of Max      Inflow      Inflow     Balance
                                   Inflow   Inflow   Occurrence      Volume      Volume       Error
  Node                 Type           MLD      MLD  days hr:min    10^6 ltr    10^6 ltr     Percent
  -------------------------------------------------------------------------------------------------
  WS01000070           JUNCTION      0.00     0.00     0  00:00           0           0       0.000 ltr
  WS01000323           JUNCTION      0.00     0.00     0  00:00           0           0       0.000 ltr
  WS01000533           JUNCTION      0.00     0.00     0  00:00           0           0       0.000 ltr
  WS01005172           JUNCTION      0.00     0.00     0  00:00           0           0       0.000 ltr
  WS01005181           JUNCTION      0.00     0.00     0  00:00           0           0       0.000 ltr
  WS01009841           JUNCTION      0.00     0.00     0  00:00           0           0       0.000 ltr
  WS02000078           JUNCTION      0.00     0.00     0  00:00           0           0       0.000 ltr
  WS02000112           JUNCTION      0.00     0.00     0  00:00           0           0       0.000 ltr
  WS02000136           JUNCTION      0.00     0.00     0  00:00           0           0       0.000 ltr
  WS02001211           JUNCTION      0.25    34.30     0  03:14      0.0407        4.86       0.531
  WS02001212           JUNCTION      0.21    34.90     0  03:15      0.0346        4.87       0.296
  WS02001213           JUNCTION      0.30    37.25     0  03:15      0.0489         4.9       0.403
  WS02003059           JUNCTION      0.23    36.57     0  03:16      0.0378        4.92       0.488
  WS02003060           JUNCTION      0.16   118.01     0  03:10      0.0252        9.01       0.397
  WS02003066           JUNCTION      0.08    95.92     0  03:06      0.0122        4.07       0.179
  WS02003067           JUNCTION      0.26    72.98     0  03:06      0.0395        4.07       0.211
  WS02003071           JUNCTION      0.35   109.63     0  03:07      0.0538        9.02       0.421
  WS02003072           JUNCTION      0.24   108.93     0  03:06      0.0382        9.03       0.268
  WS02003073           JUNCTION      0.07   128.26     0  03:08     0.00978        9.57       0.245
  WS02003076           JUNCTION      0.72   133.53     0  03:07        0.12        9.66       0.143
  WS02003077           JUNCTION      0.04    11.98     0  03:04      0.0059       0.557       0.153
  WS02003078           JUNCTION      0.03    13.93     0  03:04     0.00419        0.55      -0.085
  WS02003079           JUNCTION      0.04    11.91     0  03:03     0.00561       0.548       0.312
  WS02003093           JUNCTION      0.02     0.08     0  03:01     0.00306     0.00354       0.645
  WS02003094           JUNCTION      7.10     7.10     0  03:01       0.299       0.302       0.997
  WS02003098           JUNCTION      0.02     6.92     0  03:01     0.00293       0.302       0.620
  WS02003099           JUNCTION      0.07     6.71     0  03:02      0.0109       0.311       1.273
  WS02003102           JUNCTION      5.94    12.11     0  03:01       0.233        0.54       0.611
  WS02003103           JUNCTION      0.02    11.95     0  03:02     0.00239       0.539       0.447
  WS02003104           JUNCTION      0.02    11.90     0  03:02     0.00302        0.54       0.378
  WS02003106           JUNCTION      0.05    11.91     0  03:03     0.00727       0.545       0.455
  WS02004050           JUNCTION      0.72   153.91     0  03:07       0.119        9.77       0.602
  WS02004053           JUNCTION      0.00     0.00     0  00:00           0           0       0.000 ltr
  WS02004136           JUNCTION      0.44    32.92     0  01:17      0.0703        4.78       0.067
  WS02004139           JUNCTION      0.38    33.58     0  01:20      0.0619        4.83       0.373
  WS02004401           JUNCTION      0.05    51.39     0  03:06     0.00897         2.9       0.403
  WS02004402           JUNCTION      0.22    51.61     0  03:07      0.0335        2.92       0.367
  WS02004403           JUNCTION      0.23    51.86     0  03:07      0.0349        2.94       0.310
  WS02004404           JUNCTION      0.24    52.14     0  03:07      0.0365        2.97       0.269
  WS02004405           JUNCTION      4.10    54.77     0  03:06       0.164        3.13       0.382
  WS02004406           JUNCTION      7.83    61.42     0  03:05       0.376        3.49       0.508
  WS02004407           JUNCTION      0.11    61.54     0  03:06      0.0171        3.49       0.452
  WS02004409           JUNCTION      5.33    65.91     0  03:06       0.256        3.73       0.374
  WS02004410           JUNCTION      0.15    66.08     0  03:06      0.0226        3.74       0.358
  WS02004411           JUNCTION      0.25    66.44     0  03:08      0.0379        3.76       0.289
  WS02004412           JUNCTION      6.80    71.35     0  03:07       0.276        4.03       0.205
  WS02004413           JUNCTION      0.11    71.85     0  03:07      0.0172        4.04       0.186
  WS02004997           JUNCTION      0.42    63.57     0  03:00      0.0693        7.33       0.533
  WS02005192           JUNCTION      6.87     6.87     0  03:01       0.282       0.284       0.203
  WS02005193           JUNCTION      0.09     7.00     0  03:01      0.0146       0.337       0.314
  WS02005196           JUNCTION      0.12     6.95     0  03:01       0.019       0.309       0.354
  WS02006109           JUNCTION      0.08    45.38     0  03:05      0.0135        2.54       0.503
  WS02006110           JUNCTION      0.08    45.49     0  03:06      0.0132        2.54       0.473
  WS02006111           JUNCTION      0.24    50.96     0  03:03      0.0366        2.85       0.182
  WS02006112           JUNCTION      0.18    51.10     0  03:04      0.0273        2.88       0.435
  WS02006113           JUNCTION      7.04    50.78     0  03:04       0.295        2.83       0.325
  WS02006115           JUNCTION      0.08    51.15     0  03:05      0.0134        2.88       0.456
  WS02006116           JUNCTION      0.24    51.31     0  03:06       0.036         2.9       0.426
  WS02006183           JUNCTION      0.00     0.00     0  00:00           0           0       0.000 ltr
  WS02006228           JUNCTION      9.77    45.29     0  03:05       0.514        2.54       0.379
  WS02006229           JUNCTION      0.13    35.54     0  03:05        0.02        2.03       0.387
  WS02006230           JUNCTION      0.07    35.43     0  03:04      0.0116        2.02       0.384
  WS02006231           JUNCTION      0.13    35.38     0  03:04      0.0205        2.01       0.186
  WS02006232           JUNCTION      4.97    35.28     0  03:04       0.201           2       0.188
  WS02006234           JUNCTION      0.14    31.47     0  03:04      0.0216         1.8       0.201
  WS02006235           JUNCTION      0.14    31.34     0  03:04      0.0223        1.78       0.121
  WS02006238           JUNCTION      0.15    31.21     0  03:04      0.0235        1.76       0.182
  WS02006239           JUNCTION      0.11    31.09     0  03:04      0.0174        1.74       0.273
  WS02006242           JUNCTION      0.08    30.99     0  03:03      0.0129        1.72       0.307
  WS02006240           JUNCTION      0.06    31.01     0  03:03     0.00992        1.73       0.220
  WS02006243           JUNCTION      0.17    30.97     0  03:03      0.0269        1.71       0.162
  WS02006245           JUNCTION      0.07    30.84     0  03:02      0.0113        1.69       0.139
  WS02006247           JUNCTION      4.43    30.81     0  03:02        0.22        1.68       0.149
  WS02006248           JUNCTION      0.12    26.66     0  03:02      0.0192        1.46       0.055
  WS02006249           JUNCTION      0.19    26.57     0  03:02      0.0286        1.44       0.173
  WS02006251           JUNCTION      2.27    26.47     0  03:01      0.0958        1.42       0.099
  WS02006253           JUNCTION      0.11    24.35     0  03:01      0.0173        1.34       0.006
  WS02618401           JUNCTION      0.00     0.00     0  00:00           0           0       0.000 ltr
  WS8802               JUNCTION      0.00     0.00     0  00:00           0           0       0.000 ltr
  WSA1649              JUNCTION      0.00     0.00     0  00:00           0           0       0.000 ltr
  WSF200               JUNCTION      0.14    85.45     0  03:09      0.0216        4.09      -0.003
  XR-Inflow            JUNCTION    158.69   158.69     0  03:01        10.6        10.6       0.224
  WS02004114           JUNCTION      0.57    64.10     0  02:56      0.0916        7.38       0.326
  outfall-2            OUTFALL       0.00     0.00     0  00:00           0           0       0.000 ltr
  outfall-5            OUTFALL       0.00     0.00     0  00:00           0           0       0.000 ltr
  outfall-14           OUTFALL       0.00     0.00     0  00:00           0           0       0.000 ltr
  outfall-16           OUTFALL       0.00     0.00     0  00:00           0           0       0.000 ltr
  12                   OUTFALL       0.00   125.85     0  03:09           0        9.71       0.000
  XR-storage           STORAGE       0.00    64.10     0  02:56           0        7.36       0.636
  CC-storage           STORAGE      21.00    21.00     0  03:01         1.1         1.1       0.001
  JK-storage           STORAGE      21.32    21.32     0  03:01        1.02        1.02      -0.004
  
  
  **********************
  Node Surcharge Summary
  **********************
  
  Surcharging occurs when water rises above the top of the highest conduit.
  ---------------------------------------------------------------------
                                               Max. Height   Min. Depth
                                   Hours       Above Crown    Below Rim
  Node                 Type      Surcharged         Meters       Meters
  ---------------------------------------------------------------------
  WS01000070           JUNCTION        4.00          0.000        0.000
  WS01000323           JUNCTION        4.00          0.000        0.000
  WS01000533           JUNCTION        4.00          0.000        2.147
  WS01005172           JUNCTION        4.00          0.000        0.000
  WS01005181           JUNCTION        4.00          0.000        0.000
  WS01009841           JUNCTION        4.00          0.000        0.000
  WS02000078           JUNCTION        4.00          0.000        0.000
  WS02000112           JUNCTION        4.00          0.000        0.000
  WS02000136           JUNCTION        4.00          0.000        0.000
  WS02004053           JUNCTION        4.00          0.000        0.000
  WS02004997           JUNCTION        3.88          5.783        0.217
  WS02006183           JUNCTION        4.00          0.000        0.000
  WS02618401           JUNCTION        4.00          0.000        0.000
  WS8802               JUNCTION        4.00          0.000        4.942
  WSA1649              JUNCTION        4.00          0.000        0.000
  XR-Inflow            JUNCTION        3.87          5.650        0.000
  WS02004114           JUNCTION        3.88          5.748        0.767
  
  
  *********************
  Node Flooding Summary
  *********************
  
  Flooding refers to all water that overflows a node, whether it ponds or not.
  --------------------------------------------------------------------------
                                                             Total   Maximum
                                 Maximum   Time of Max       Flood    Ponded
                        Hours       Rate    Occurrence      Volume     Depth
  Node                 Flooded       MLD   days hr:min    10^6 ltr    Meters
  --------------------------------------------------------------------------
  XR-Inflow               1.68     95.52      0  03:01       3.318     0.000
  XR-storage              2.11     31.62      0  02:56       2.541     0.000
  JK-storage              2.21     21.32      0  03:01       0.889     0.000
  
  
  **********************
  Storage Volume Summary
  **********************
  
  --------------------------------------------------------------------------------------------------
                         Average     Avg  Evap Exfil       Maximum     Max    Time of Max    Maximum
                          Volume    Pcnt  Pcnt  Pcnt        Volume    Pcnt     Occurrence    Outflow
  Storage Unit           1000 m3    Full  Loss  Loss       1000 m3    Full    days hr:min        MLD
  --------------------------------------------------------------------------------------------------
  XR-storage               0.053      84     0     0         0.063     100       0  01:53      32.48
  CC-storage               0.097      61     0     0         0.142      89       0  01:56      17.28
  JK-storage               0.112      83     0     0         0.136     100       0  01:47       0.00
  
  
  ***********************
  Outfall Loading Summary
  ***********************
  
  ---------------------------------------------------------------------------------------------------------------------------------
                         Flow       Avg       Max       Total         Total         Total         Total         Total         Total
                         Freq      Flow      Flow      Volume           COD         NH3-N            TN            TP            SS
  Outfall Node           Pcnt       MLD       MLD    10^6 ltr            kg            kg            kg            kg            kg
  ---------------------------------------------------------------------------------------------------------------------------------
  outfall-2              0.00      0.00      0.00       0.000         0.000         0.000         0.000         0.000         0.000
  outfall-5              0.00      0.00      0.00       0.000         0.000         0.000         0.000         0.000         0.000
  outfall-14             0.00      0.00      0.00       0.000         0.000         0.000         0.000         0.000         0.000
  outfall-16             0.00      0.00      0.00       0.000         0.000         0.000         0.000         0.000         0.000
  12                    99.98     67.98    125.85       9.711      1622.773         0.000         0.000         0.000         0.000
  ---------------------------------------------------------------------------------------------------------------------------------
  System                20.00     67.98    125.85       9.711      1622.773         0.000         0.000         0.000         0.000
  
  
  ********************
  Link Flow Summary
  ********************
  
  -----------------------------------------------------------------------------
                                 Maximum  Time of Max   Maximum    Max/    Max/
                                  |Flow|   Occurrence   |Veloc|    Full    Full
  Link                 Type          MLD  days hr:min     m/sec    Flow   Depth
  -----------------------------------------------------------------------------
  WSL49                CONDUIT    132.81     0  03:07      2.33    1.65    0.63
  WSL1465              CONDUIT     39.44     0  03:10      1.66    0.36    0.65
  WSL1472              CONDUIT    108.72     0  03:06      1.89    1.24    0.60
  WSL1475              CONDUIT    153.19     0  03:07      2.96    1.63    0.42
  WSL1476              CONDUIT     11.96     0  03:04      0.55    0.06    0.58
  WSL1477              CONDUIT     13.91     0  03:04      2.40    0.55    0.29
  WSL1490              CONDUIT     34.70     0  03:15      1.39    0.56    0.48
  WSL1491              CONDUIT     36.97     0  03:15      1.45    0.22    0.53
  WSL1492              CONDUIT     36.35     0  03:16      1.39    0.56    0.60
  WSL1507              CONDUIT      0.18     0  03:02      0.11    0.00    0.20
  WSL1508              CONDUIT      6.91     0  03:01      0.92    0.19    0.23
  WSL1512              CONDUIT      6.65     0  03:02      0.61    0.05    0.22
  WSL1513              CONDUIT      6.80     0  03:04      0.50    0.40    0.35
  WSL1515              CONDUIT     95.85     0  03:06      2.74    0.94    0.39
  WSL1516              CONDUIT     11.95     0  03:04      4.04    0.04    0.18
  WSL1518              CONDUIT     11.94     0  03:02      0.86    0.23    0.36
  WSL1519              CONDUIT     11.87     0  03:03      0.85    0.30    0.36
  WSL1521              CONDUIT     11.88     0  03:03      0.91    0.34    0.34
  WSL1543              CONDUIT     11.88     0  03:02      0.82    0.37    0.37
  WSL1961              CONDUIT     33.20     0  01:20      3.07    0.07    0.29
  WSL1964              CONDUIT     34.06     0  03:14      1.38    0.19    0.37
  WSL2010              CONDUIT     51.68     0  03:07      1.25    0.66    0.60
  WSL2011              CONDUIT     51.94     0  03:07      1.15    0.33    0.64
  WSL2012              CONDUIT     52.18     0  03:07      1.07    0.79    0.68
  WSL2013              CONDUIT     54.82     0  03:06      1.15    1.36    0.67
  WSL2014              CONDUIT     61.45     0  03:06      1.35    0.98    0.64
  WSL2015              CONDUIT     61.59     0  03:06      1.43    0.83    0.61
  WSL2016              CONDUIT     65.95     0  03:06      1.60    0.76    0.59
  WSL2017              CONDUIT     66.24     0  03:08      1.73    0.81    0.56
  WSL2018              CONDUIT     71.76     0  03:07      2.20    0.43    0.50
  WSL2019              CONDUIT     72.77     0  03:06      2.06    0.43    0.56
  WSL2028              CONDUIT     51.43     0  03:07      1.24    0.55    0.59
  WSL2029              CONDUIT     66.91     0  03:07      1.97    0.85    0.51
  WSL2038              CONDUIT      6.85     0  03:01      0.62    0.34    0.48
  WSL2039              CONDUIT      8.90     0  03:15      1.36    0.46    0.53
  WSL2041              CONDUIT      6.92     0  03:01      0.85    0.34    0.51
  WSL2294              CONDUIT     45.41     0  03:06      1.34    1.53    0.73
  WSL2295              CONDUIT     45.56     0  03:06      1.55    2.05    0.64
  WSL2296              CONDUIT     50.95     0  03:04      1.99    0.29    0.57
  WSL2297              CONDUIT     51.08     0  03:05      1.29    0.98    0.57
  WSL2298              CONDUIT     50.77     0  03:03      2.34    2.34    0.50
  WSL2301              CONDUIT     51.12     0  03:06      1.30    0.47    0.56
  WSL2302              CONDUIT     51.34     0  03:06      1.26    0.63    0.58
  WSL2441              CONDUIT     45.30     0  03:05      1.25    1.16    0.78
  WSL2442              CONDUIT     35.43     0  03:05      1.26    0.91    0.85
  WSL2443              CONDUIT     35.36     0  03:04      1.43    0.55    0.74
  WSL2444              CONDUIT     35.26     0  03:04      1.71    0.56    0.62
  WSL2446              CONDUIT     31.49     0  03:05      1.65    0.54    0.56
  WSL2447              CONDUIT     31.35     0  03:04      1.55    1.61    0.59
  WSL2448              CONDUIT     31.22     0  03:04      1.41    0.88    0.63
  WSL2449              CONDUIT     31.08     0  03:04      1.32    1.08    0.67
  WSL2450              CONDUIT     30.99     0  03:04      1.32    0.64    0.67
  WSL2451              CONDUIT     30.95     0  03:03      1.27    2.02    0.69
  WSL2452              CONDUIT     30.91     0  03:03      1.28    0.59    0.68
  WSL2454              CONDUIT     30.83     0  03:03      1.46    0.72    0.63
  WSL2478              CONDUIT     30.78     0  03:02      1.35    1.09    0.65
  WSL2479              CONDUIT     26.67     0  03:02      1.24    0.51    0.63
  WSL2480              CONDUIT     26.56     0  03:02      1.27    1.23    0.61
  WSL2482              CONDUIT     26.42     0  03:02      1.23    0.69    0.63
  WSL2484              CONDUIT     24.36     0  03:02      1.82    0.34    0.54
  WSL2493              CONDUIT     35.55     0  03:05      1.08    0.60    0.77
  WSL2867              CONDUIT     85.33     0  03:09      3.76    0.18    0.29
  WSL2868              CONDUIT     80.10     0  03:09      1.98    0.15    0.44
  WSL348               CONDUIT     63.16     0  03:00      1.88    0.58    1.00
  WSL175               CONDUIT     63.56     0  03:00      2.29    2.14    1.00
  WSL1467              CONDUIT    109.33     0  03:07      1.79    0.58    0.61
  WSL1473              CONDUIT    117.18     0  03:08      2.02    0.48    0.61
  XRpipe               CONDUIT     64.10     0  02:56      2.54    0.16    1.00
  8                    CONDUIT      0.00     0  00:00      0.00    0.00    0.00
  19                   CONDUIT      0.00     0  00:00      0.00    0.00    0.00
  17                   CONDUIT      0.00     0  00:00      0.00    0.00    0.00
  4                    CONDUIT      0.00     0  00:00      0.00    0.00    0.00
  2                    CONDUIT    125.85     0  03:09      3.98    0.45    0.47
  XR-Pump-1            PUMP         8.12     0  00:08              1.00
  XR-Pump-3            PUMP         8.12     0  00:09              1.00
  XR-Pump-2            PUMP         8.12     0  00:09              1.00
  XR-Pump-4            PUMP         8.12     0  01:17              1.00
  CC-Pump-1            PUMP        17.28     0  01:33              1.00
  CC-Pump-2            PUMP         0.00     0  00:00              0.00
  JK-Pump-1            PUMP         0.00     0  00:00              0.00
  JK-Pump-2            PUMP         0.00     0  00:00              0.00
  
  
  ***************************
  Flow Classification Summary
  ***************************
  
  -------------------------------------------------------------------------------------
                      Adjusted    ---------- Fraction of Time in Flow Class ---------- 
                       /Actual         Up    Down  Sub   Sup   Up    Down  Norm  Inlet 
  Conduit               Length    Dry  Dry   Dry   Crit  Crit  Crit  Crit  Ltd   Ctrl  
  -------------------------------------------------------------------------------------
  WSL49                   1.00   0.00  0.00  0.00  1.00  0.00  0.00  0.00  0.00  0.00
  WSL1465                 1.00   0.00  0.00  0.00  1.00  0.00  0.00  0.00  0.10  0.00
  WSL1472                 1.00   0.00  0.00  0.00  1.00  0.00  0.00  0.00  0.00  0.00
  WSL1475                 1.00   0.00  0.00  0.00  0.16  0.84  0.00  0.00  0.01  0.00
  WSL1476                 1.00   0.00  0.00  0.00  1.00  0.00  0.00  0.00  1.00  0.00
  WSL1477                 1.00   0.00  0.00  0.00  0.01  0.99  0.00  0.00  0.43  0.00
  WSL1490                 1.00   0.00  0.00  0.00  1.00  0.00  0.00  0.00  0.00  0.00
  WSL1491                 1.00   0.00  0.00  0.00  1.00  0.00  0.00  0.00  0.04  0.00
  WSL1492                 1.00   0.00  0.00  0.00  1.00  0.00  0.00  0.00  0.00  0.00
  WSL1507                 1.00   0.00  0.00  0.00  1.00  0.00  0.00  0.00  0.59  0.00
  WSL1508                 1.00   0.00  0.00  0.00  1.00  0.00  0.00  0.00  0.00  0.00
  WSL1512                 1.00   0.00  0.00  0.00  1.00  0.00  0.00  0.00  0.97  0.00
  WSL1513                 1.00   0.00  0.00  0.00  1.00  0.00  0.00  0.00  0.00  0.00
  WSL1515                 1.00   0.00  0.00  0.00  0.13  0.87  0.00  0.00  0.05  0.00
  WSL1516                 1.00   0.00  0.00  0.00  0.00  1.00  0.00  0.00  1.00  0.00
  WSL1518                 1.00   0.00  0.00  0.00  1.00  0.00  0.00  0.00  0.50  0.00
  WSL1519                 1.00   0.00  0.00  0.00  1.00  0.00  0.00  0.00  0.36  0.00
  WSL1521                 1.00   0.00  0.00  0.00  1.00  0.00  0.00  0.00  0.02  0.00
  WSL1543                 1.00   0.00  0.00  0.00  1.00  0.00  0.00  0.00  0.02  0.00
  WSL1961                 1.00   0.00  0.00  0.00  0.01  0.99  0.00  0.00  0.98  0.00
  WSL1964                 1.00   0.00  0.00  0.00  1.00  0.00  0.00  0.00  0.05  0.00
  WSL2010                 1.00   0.00  0.00  0.00  1.00  0.00  0.00  0.00  0.03  0.00
  WSL2011                 1.00   0.00  0.00  0.00  1.00  0.00  0.00  0.00  0.27  0.00
  WSL2012                 1.00   0.00  0.00  0.00  1.00  0.00  0.00  0.00  0.00  0.00
  WSL2013                 1.00   0.00  0.00  0.00  1.00  0.00  0.00  0.00  0.00  0.00
  WSL2014                 1.00   0.00  0.00  0.00  1.00  0.00  0.00  0.00  0.00  0.00
  WSL2015                 1.00   0.00  0.00  0.00  1.00  0.00  0.00  0.00  0.02  0.00
  WSL2016                 1.00   0.00  0.00  0.00  1.00  0.00  0.00  0.00  0.01  0.00
  WSL2017                 1.00   0.00  0.00  0.00  1.00  0.00  0.00  0.00  0.04  0.00
  WSL2018                 1.00   0.00  0.00  0.00  0.01  0.99  0.00  0.00  0.08  0.00
  WSL2019                 1.00   0.00  0.00  0.00  0.53  0.47  0.00  0.00  0.11  0.00
  WSL2028                 1.00   0.00  0.00  0.00  1.00  0.00  0.00  0.00  0.07  0.00
  WSL2029                 1.00   0.00  0.00  0.00  0.62  0.38  0.00  0.00  0.00  0.00
  WSL2038                 1.00   0.00  0.00  0.00  1.00  0.00  0.00  0.00  0.02  0.00
  WSL2039                 1.00   0.00  0.00  0.00  0.88  0.12  0.00  0.00  0.01  0.00
  WSL2041                 1.00   0.00  0.00  0.00  1.00  0.00  0.00  0.00  0.31  0.00
  WSL2294                 1.00   0.00  0.00  0.00  1.00  0.00  0.00  0.00  0.00  0.00
  WSL2295                 1.00   0.00  0.00  0.00  1.00  0.00  0.00  0.00  0.00  0.00
  WSL2296                 1.00   0.00  0.00  0.00  0.22  0.78  0.00  0.00  0.68  0.00
  WSL2297                 1.00   0.00  0.00  0.00  1.00  0.00  0.00  0.00  0.00  0.00
  WSL2298                 1.00   0.00  0.00  0.00  0.05  0.95  0.00  0.00  0.00  0.00
  WSL2301                 1.00   0.00  0.00  0.00  1.00  0.00  0.00  0.00  0.09  0.00
  WSL2302                 1.00   0.00  0.00  0.00  1.00  0.00  0.00  0.00  0.06  0.00
  WSL2441                 1.00   0.00  0.00  0.00  1.00  0.00  0.00  0.00  0.01  0.00
  WSL2442                 1.00   0.00  0.00  0.00  1.00  0.00  0.00  0.00  0.22  0.00
  WSL2443                 1.00   0.00  0.00  0.00  1.00  0.00  0.00  0.00  0.55  0.00
  WSL2444                 1.00   0.00  0.00  0.00  0.23  0.77  0.00  0.00  0.38  0.00
  WSL2446                 1.00   0.00  0.00  0.00  0.34  0.66  0.00  0.00  0.19  0.00
  WSL2447                 1.00   0.00  0.00  0.00  1.00  0.00  0.00  0.00  0.00  0.00
  WSL2448                 1.00   0.00  0.00  0.00  1.00  0.00  0.00  0.00  0.03  0.00
  WSL2449                 1.00   0.00  0.00  0.00  1.00  0.00  0.00  0.00  0.03  0.00
  WSL2450                 1.00   0.00  0.00  0.00  1.00  0.00  0.00  0.00  0.44  0.00
  WSL2451                 1.00   0.00  0.00  0.00  1.00  0.00  0.00  0.00  0.00  0.00
  WSL2452                 1.00   0.00  0.00  0.00  1.00  0.00  0.00  0.00  0.58  0.00
  WSL2454                 1.00   0.00  0.00  0.00  0.99  0.01  0.00  0.00  0.09  0.00
  WSL2478                 1.00   0.00  0.00  0.00  1.00  0.00  0.00  0.00  0.00  0.00
  WSL2479                 1.00   0.00  0.00  0.00  1.00  0.00  0.00  0.00  0.53  0.00
  WSL2480                 1.00   0.00  0.00  0.00  1.00  0.00  0.00  0.00  0.00  0.00
  WSL2482                 1.00   0.00  0.00  0.00  1.00  0.00  0.00  0.00  0.59  0.00
  WSL2484                 1.00   0.00  0.00  0.00  0.98  0.02  0.00  0.00  0.63  0.00
  WSL2493                 1.00   0.00  0.00  0.00  1.00  0.00  0.00  0.00  0.05  0.00
  WSL2867                 1.00   0.00  0.00  0.00  0.00  1.00  0.00  0.00  0.20  0.00
  WSL2868                 1.00   0.00  0.00  0.00  0.97  0.03  0.00  0.00  0.86  0.00
  WSL348                  1.00   0.00  0.00  0.00  1.00  0.00  0.00  0.00  0.01  0.00
  WSL175                  1.00   0.00  0.00  0.00  1.00  0.00  0.00  0.00  0.00  0.00
  WSL1467                 1.00   0.00  0.00  0.00  1.00  0.00  0.00  0.00  0.06  0.00
  WSL1473                 1.00   0.00  0.00  0.00  1.00  0.00  0.00  0.00  0.05  0.00
  XRpipe                  1.00   0.00  0.00  0.00  1.00  0.00  0.00  0.00  0.01  0.00
  8                       1.00   1.00  0.00  0.00  0.00  0.00  0.00  0.00  0.00  0.00
  19                      1.00   1.00  0.00  0.00  0.00  0.00  0.00  0.00  0.00  0.00
  17                      1.00   1.00  0.00  0.00  0.00  0.00  0.00  0.00  0.00  0.00
  4                       1.00   1.00  0.00  0.00  0.00  0.00  0.00  0.00  0.00  0.00
  2                       1.00   0.00  0.00  0.00  0.00  1.00  0.00  0.00  0.19  0.00
  
  
  *************************
  Conduit Surcharge Summary
  *************************
  
  ----------------------------------------------------------------------------
                                                           Hours        Hours 
                         --------- Hours Full --------   Above Full   Capacity
  Conduit                Both Ends  Upstream  Dnstream   Normal Flow   Limited
  ----------------------------------------------------------------------------
  WSL49                       0.01      0.01      0.01      0.95         0.01
  WSL1472                     0.01      0.01      0.01      0.55         0.01
  WSL1475                     0.01      0.01      0.01      0.54         0.01
  WSL1476                     0.01      0.01      0.01      0.01         0.01
  WSL2013                     0.01      0.01      0.01      0.57         0.01
  WSL2294                     0.01      0.01      0.01      0.76         0.01
  WSL2295                     0.01      0.01      0.01      1.21         0.01
  WSL2298                     0.01      0.01      0.01      1.37         0.01
  WSL2441                     0.01      0.01      0.01      0.34         0.01
  WSL2447                     0.01      0.01      0.01      1.12         0.01
  WSL2449                     0.01      0.01      0.01      0.20         0.01
  WSL2451                     0.01      0.01      0.01      1.30         0.01
  WSL2478                     0.01      0.01      0.01      0.19         0.01
  WSL2480                     0.01      0.01      0.01      0.62         0.01
  WSL348                      3.87      3.87      3.88      0.01         0.01
  WSL175                      3.88      3.88      3.88      2.47         2.57
  XRpipe                      3.88      3.88      3.96      0.01         0.01
  
  
  ***************
  Pumping Summary
  ***************
  
  ---------------------------------------------------------------------------------------------------------
                                                  Min       Avg       Max     Total     Power    % Time Off
                        Percent   Number of      Flow      Flow      Flow    Volume     Usage    Pump Curve
  Pump                 Utilized   Start-Ups       MLD       MLD       MLD  10^6 ltr     Kw-hr    Low   High
  ---------------------------------------------------------------------------------------------------------
  XR-Pump-1               96.32           1      0.00      8.12      8.12     1.303      6.63    0.0    0.0
  XR-Pump-3               91.28          18      0.00      8.12      8.12     1.235      6.12    0.0    0.0
  XR-Pump-2               96.18           1      0.00      8.12      8.12     1.301      6.62    0.0    0.0
  XR-Pump-4               64.00          12      0.00      8.12      8.12     0.866      3.38    0.0    0.0
  CC-Pump-1               34.46           6      0.00     17.28     17.28     0.992      3.07    0.0    0.0
  CC-Pump-2                0.00           0      0.00      0.00      0.00     0.000      0.00    0.0    0.0
  JK-Pump-1                0.00           0      0.00      0.00      0.00     0.000      0.00    0.0    0.0
  JK-Pump-2                0.00           0      0.00      0.00      0.00     0.000      0.00    0.0    0.0
  
  
  ***************************
  Link Pollutant Load Summary
  ***************************
  
  ------------------------------------------------------------------------------------------
                                 COD         NH3-N            TN            TP            SS
  Link                            kg            kg            kg            kg            kg
  ------------------------------------------------------------------------------------------
  WSL49                     1594.501         0.000         0.000         0.000         0.000
  WSL1465                    718.994         0.000         0.000         0.000         0.000
  WSL1472                   1482.329         0.000         0.000         0.000         0.000
  WSL1475                   1612.410         0.000         0.000         0.000         0.000
  WSL1476                    111.092         0.000         0.000         0.000         0.000
  WSL1477                    109.697         0.000         0.000         0.000         0.000
  WSL1490                    706.109         0.000         0.000         0.000         0.000
  WSL1491                    709.902         0.000         0.000         0.000         0.000
  WSL1492                    715.826         0.000         0.000         0.000         0.000
  WSL1507                      0.853         0.000         0.000         0.000         0.000
  WSL1508                     69.017         0.000         0.000         0.000         0.000
  WSL1512                     69.266         0.000         0.000         0.000         0.000
  WSL1513                     70.485         0.000         0.000         0.000         0.000
  WSL1515                    757.465         0.000         0.000         0.000         0.000
  WSL1516                    109.970         0.000         0.000         0.000         0.000
  WSL1518                    107.084         0.000         0.000         0.000         0.000
  WSL1519                    107.497         0.000         0.000         0.000         0.000
  WSL1521                    108.430         0.000         0.000         0.000         0.000
  WSL1543                    107.236         0.000         0.000         0.000         0.000
  WSL1961                    694.217         0.000         0.000         0.000         0.000
  WSL1964                    702.592         0.000         0.000         0.000         0.000
  WSL2010                    465.942         0.000         0.000         0.000         0.000
  WSL2011                    470.378         0.000         0.000         0.000         0.000
  WSL2012                    475.211         0.000         0.000         0.000         0.000
  WSL2013                    500.028         0.000         0.000         0.000         0.000
  WSL2014                    632.988         0.000         0.000         0.000         0.000
  WSL2015                    633.009         0.000         0.000         0.000         0.000
  WSL2016                    703.792         0.000         0.000         0.000         0.000
  WSL2017                    705.008         0.000         0.000         0.000         0.000
  WSL2018                    750.830         0.000         0.000         0.000         0.000
  WSL2019                    752.245         0.000         0.000         0.000         0.000
  WSL2028                    462.162         0.000         0.000         0.000         0.000
  WSL2029                    709.187         0.000         0.000         0.000         0.000
  WSL2038                     44.659         0.000         0.000         0.000         0.000
  WSL2039                     54.028         0.000         0.000         0.000         0.000
  WSL2041                     49.328         0.000         0.000         0.000         0.000
  WSL2294                    447.120         0.000         0.000         0.000         0.000
  WSL2295                    447.465         0.000         0.000         0.000         0.000
  WSL2296                    455.774         0.000         0.000         0.000         0.000
  WSL2297                    458.152         0.000         0.000         0.000         0.000
  WSL2298                    450.517         0.000         0.000         0.000         0.000
  WSL2301                    458.486         0.000         0.000         0.000         0.000
  WSL2302                    462.455         0.000         0.000         0.000         0.000
  WSL2441                    446.933         0.000         0.000         0.000         0.000
  WSL2442                    293.557         0.000         0.000         0.000         0.000
  WSL2443                    292.536         0.000         0.000         0.000         0.000
  WSL2444                    289.545         0.000         0.000         0.000         0.000
  WSL2446                    287.724         0.000         0.000         0.000         0.000
  WSL2447                    284.663         0.000         0.000         0.000         0.000
  WSL2448                    281.286         0.000         0.000         0.000         0.000
  WSL2449                    277.716         0.000         0.000         0.000         0.000
  WSL2450                    275.447         0.000         0.000         0.000         0.000
  WSL2451                    274.279         0.000         0.000         0.000         0.000
  WSL2452                    272.860         0.000         0.000         0.000         0.000
  WSL2454                    268.813         0.000         0.000         0.000         0.000
  WSL2478                    267.342         0.000         0.000         0.000         0.000
  WSL2479                    234.493         0.000         0.000         0.000         0.000
  WSL2480                    231.349         0.000         0.000         0.000         0.000
  WSL2482                    226.854         0.000         0.000         0.000         0.000
  WSL2484                    201.163         0.000         0.000         0.000         0.000
  WSL2493                    295.986         0.000         0.000         0.000         0.000
  WSL2867                    758.057         0.000         0.000         0.000         0.000
  WSL2868                    761.352         0.000         0.000         0.000         0.000
  WSL348                    1041.714         0.000         0.000         0.000         0.000
  WSL175                    1048.316         0.000         0.000         0.000         0.000
  WSL1467                   1479.136         0.000         0.000         0.000         0.000
  WSL1473                   1485.063         0.000         0.000         0.000         0.000
  XRpipe                    1061.295         0.000         0.000         0.000         0.000
  8                            0.000         0.000         0.000         0.000         0.000
  19                           0.000         0.000         0.000         0.000         0.000
  17                           0.000         0.000         0.000         0.000         0.000
  4                            0.000         0.000         0.000         0.000         0.000
  2                         1622.773         0.000         0.000         0.000         0.000
  XR-Pump-1                  191.577         0.000         0.000         0.000         0.000
  XR-Pump-3                  180.201         0.000         0.000         0.000         0.000
  XR-Pump-2                  191.263         0.000         0.000         0.000         0.000
  XR-Pump-4                  119.457         0.000         0.000         0.000         0.000
  CC-Pump-1                  148.150         0.000         0.000         0.000         0.000
  CC-Pump-2                    0.000         0.000         0.000         0.000         0.000
  JK-Pump-1                    0.000         0.000         0.000         0.000         0.000
  JK-Pump-2                    0.000         0.000         0.000         0.000         0.000
  

  Analysis begun on:  Tue Mar 19 20:21:01 2019
  Analysis ended on:  Tue Mar 19 20:21:01 2019
  Total elapsed time: < 1 sec