
  EPA STORM WATER MANAGEMENT MODEL - VERSION 5.1 (Build 5.2.0.dev1)
  --------------------------------------------------------------

  
  *********************************************************
  NOTE: The summary statistics displayed in this report are
  based on results found at every computational time step,  
  not just on results from each reporting time step.
  *********************************************************
  
  ****************
  Analysis Options
  ****************
  Flow Units ............... MLD
  Process Models:
    Rainfall/Runoff ........ YES
    RDII ................... NO
    Snowmelt ............... NO
    Groundwater ............ NO
    Flow Routing ........... YES
    Ponding Allowed ........ NO
    Water Quality .......... YES
  Infiltration Method ...... GREEN_AMPT
  Flow Routing Method ...... DYNWAVE
  Starting Date ............ 08/28/2015 08:00:00
  Ending Date .............. 08/28/2015 12:00:00
  Antecedent Dry Days ...... 4.0
  Report Time Step ......... 00:01:00
  Wet Time Step ............ 00:01:00
  Dry Time Step ............ 00:01:00
  Routing Time Step ........ 5.00 sec
  Variable Time Step ....... YES
  Maximum Trials ........... 8
  Number of Threads ........ 1
  Head Tolerance ........... 0.001500 m
  
  
  **************************        Volume         Depth
  Runoff Quantity Continuity     hectare-m            mm
  **************************     ---------       -------
  Total Precipitation ......         5.463        19.367
  Evaporation Loss .........         0.000         0.000
  Infiltration Loss ........         2.354         8.346
  Surface Runoff ...........         1.441         5.109
  Final Storage ............         1.671         5.923
  Continuity Error (%) .....        -0.055
  
  
  **************************           COD         NH3-N            TN            TP            SS
  Runoff Quality Continuity             kg            kg            kg            kg            kg
  **************************    ----------    ----------    ----------    ----------    ----------
  Initial Buildup ..........     13074.240         0.000         0.000         0.000         0.000
  Surface Buildup ..........       106.696         0.000         0.000         0.000         0.000
  Wet Deposition ...........         0.000         0.000         0.000         0.000         0.000
  Sweeping Removal .........         0.000         0.000         0.000         0.000         0.000
  Infiltration Loss ........       179.758         0.000         0.000         0.000         0.000
  BMP Removal ..............         0.000         0.000         0.000         0.000         0.000
  Surface Runoff ...........      2411.300         0.000         0.000         0.000         0.000
  Remaining Buildup ........     10587.442         0.000         0.000         0.000         0.000
  Continuity Error (%) .....         0.018         0.000         0.000         0.000         0.000
  
  
  **************************        Volume        Volume
  Flow Routing Continuity        hectare-m      10^6 ltr
  **************************     ---------     ---------
  Dry Weather Inflow .......         0.000         0.000
  Wet Weather Inflow .......         1.437        14.371
  Groundwater Inflow .......         0.000         0.000
  RDII Inflow ..............         0.000         0.000
  External Inflow ..........         0.561         5.611
  External Outflow .........         1.052        10.521
  Flooding Loss ............         0.839         8.387
  Evaporation Loss .........         0.000         0.000
  Exfiltration Loss ........         0.000         0.000
  Initial Stored Volume ....         0.000         0.000
  Final Stored Volume ......         0.108         1.079
  Continuity Error (%) .....        -0.027
  
  
  **************************           COD         NH3-N            TN            TP            SS
  Quality Routing Continuity            kg            kg            kg            kg            kg
  **************************    ----------    ----------    ----------    ----------    ----------
  Dry Weather Inflow .......         0.000         0.000         0.000         0.000         0.000
  Wet Weather Inflow .......      2406.571         0.000         0.000         0.000         0.000
  Groundwater Inflow .......         0.000         0.000         0.000         0.000         0.000
  RDII Inflow ..............         0.000         0.000         0.000         0.000         0.000
  External Inflow ..........       937.004         0.000         0.000         0.000         0.000
  External Outflow .........      1831.519         0.000         0.000         0.000         0.000
  Flooding Loss ............      1365.410         0.000         0.000         0.000         0.000
  Exfiltration Loss ........         0.000         0.000         0.000         0.000         0.000
  Mass Reacted .............         0.000         0.000         0.000         0.000         0.000
  Initial Stored Mass ......         0.000         0.000         0.000         0.000         0.000
  Final Stored Mass ........       145.067         0.000         0.000         0.000         0.000
  Continuity Error (%) .....         0.047         0.000         0.000         0.000         0.000
  
  
  *************************
  Highest Continuity Errors
  *************************
  Node WS02003099 (1.16%)
  
  
  ***************************
  Time-Step Critical Elements
  ***************************
  Link WSL2448 (54.36%)
  Link WSL1477 (27.40%)
  
  
  ********************************
  Highest Flow Instability Indexes
  ********************************
  Link WSL1477 (42)
  Link WSL1516 (39)
  Link WSL1515 (26)
  Link WSL2867 (22)
  Link WSL2868 (19)
  
  
  *************************
  Routing Time Step Summary
  *************************
  Minimum Time Step           :     0.71 sec
  Average Time Step           :     2.83 sec
  Maximum Time Step           :     5.00 sec
  Percent in Steady State     :    -0.00
  Average Iterations per Step :     3.42
  Percent Not Converging      :    12.84
  
  
  ***************************
  Subcatchment Runoff Summary
  ***************************
  
  --------------------------------------------------------------------------------------------------------
                            Total      Total      Total      Total      Total       Total     Peak  Runoff
                           Precip      Runon       Evap      Infil     Runoff      Runoff   Runoff   Coeff
  Subcatchment                 mm         mm         mm         mm         mm    10^6 ltr      MLD
  --------------------------------------------------------------------------------------------------------
  1                         19.37      23.01       0.00       9.92      20.40        0.25     4.59   0.481
  2                         19.37       0.00       0.00       7.97       6.59        0.22     4.54   0.340
  3                         19.37       0.00       0.00       8.02       6.24        0.32     6.42   0.322
  4                         19.37       0.00       0.00       7.94       6.80        0.18     3.73   0.351
  5                         19.37      16.22       0.00       9.64      16.01        0.27     5.26   0.450
  6                         19.37       0.00       0.00       8.02       6.26        0.31     6.25   0.323
  7                         19.37       0.00       0.00       8.33       5.51        8.81   155.05   0.284
  8                         19.37       0.00       0.00       8.00       6.39        0.27     5.50   0.330
  9                         19.37       6.31       0.00       8.79       9.26        0.35     6.88   0.361
  17                        19.37       0.00       0.00       7.99       6.51        0.24     4.87   0.336
  18                        19.37       0.00       0.00       8.01       6.37        0.28     5.61   0.329
  28                        19.37      21.21       0.00      10.05      17.05        0.45     8.21   0.420
  29                        19.37       8.98       0.00       8.87      10.91        0.26     5.08   0.385
  30                        19.37      24.92       0.00      10.14      23.39        0.22     4.20   0.528
  31                        19.37       0.00       0.00       7.98       6.54        0.23     4.74   0.338
  33                        19.37       0.00       0.00       7.75       7.94        0.07     1.48   0.410
  34                        19.37      14.14       0.00       9.51      14.36        0.30     5.77   0.429
  35                        19.37       0.00       0.00       7.96       6.68        0.20     4.15   0.345
  36                        19.37      13.20       0.00       9.59      11.56        0.68    12.81   0.355
  39                        19.37       0.00       0.00       7.98       6.58        0.22     4.58   0.340
  40                        19.37       3.52       0.00       8.46       7.96        0.31     6.21   0.348
  41                        19.37       0.00       0.00       7.90       7.10        0.14     2.87   0.367
  42                        19.37       0.00       0.00       7.92       6.95        0.16     3.28   0.359
  43                        19.37       0.00       0.00       7.56       8.95        0.03     0.72   0.462
  44                        19.37     192.12       0.00      15.47     165.40        0.61    10.94   0.782
  45                        19.37       0.00       0.00       7.79       7.75        0.08     1.70   0.400
  46                        19.37      11.12       0.00       9.17      12.50        0.27     5.23   0.410
  47                        19.37       0.00       0.00       7.80       7.67        0.09     1.81   0.396
  48                        19.37       5.38       0.00       8.51      10.06        0.16     3.23   0.406
  55                        19.37       8.06       0.00       8.63      12.68        0.11     2.16   0.462
  56                        19.37      12.23       0.00       9.27      13.07        0.28     5.43   0.414
  57                        19.37       0.00       0.00       8.02       6.25        0.31     6.31   0.323
  59                        19.37       0.00       0.00       7.75       7.98        0.07     1.44   0.412
  60                        19.37      17.48       0.00       9.30      20.00        0.10     2.10   0.543
  61                        19.37       0.00       0.00       8.13       5.29        0.95    18.68   0.273
  62                        19.37       0.00       0.00       8.13       5.26        1.00    19.56   0.271
  64                        19.37       0.00       0.00       7.82       7.59        0.09     1.93   0.392
  
  
  ****************************
  Subcatchment Washoff Summary
  ****************************
  
  ------------------------------------------------------------------------------------------
                                 COD         NH3-N            TN            TP            SS
  Subcatchment                    kg            kg            kg            kg            kg
  ------------------------------------------------------------------------------------------
  1                           39.935         0.000         0.000         0.000         0.000
  2                            0.000         0.000         0.000         0.000         0.000
  3                            0.000         0.000         0.000         0.000         0.000
  4                           31.090         0.000         0.000         0.000         0.000
  5                           81.451         0.000         0.000         0.000         0.000
  6                           50.227         0.000         0.000         0.000         0.000
  7                         1361.586         0.000         0.000         0.000         0.000
  8                           44.603         0.000         0.000         0.000         0.000
  9                           84.460         0.000         0.000         0.000         0.000
  17                          39.877         0.000         0.000         0.000         0.000
  18                          45.418         0.000         0.000         0.000         0.000
  28                         166.355         0.000         0.000         0.000         0.000
  29                          79.635         0.000         0.000         0.000         0.000
  30                          62.015         0.000         0.000         0.000         0.000
  31                          38.863         0.000         0.000         0.000         0.000
  33                          13.180         0.000         0.000         0.000         0.000
  34                          88.921         0.000         0.000         0.000         0.000
  35                          34.380         0.000         0.000         0.000         0.000
  36                         209.301         0.000         0.000         0.000         0.000
  39                          37.671         0.000         0.000         0.000         0.000
  40                          66.194         0.000         0.000         0.000         0.000
  41                          24.378         0.000         0.000         0.000         0.000
  42                          27.607         0.000         0.000         0.000         0.000
  43                           6.668         0.000         0.000         0.000         0.000
  44                         190.239         0.000         0.000         0.000         0.000
  45                          15.001         0.000         0.000         0.000         0.000
  46                          81.049         0.000         0.000         0.000         0.000
  47                          15.886         0.000         0.000         0.000         0.000
  48                          39.650         0.000         0.000         0.000         0.000
  55                          29.621         0.000         0.000         0.000         0.000
  56                          86.632         0.000         0.000         0.000         0.000
  57                          50.701         0.000         0.000         0.000         0.000
  59                          12.830         0.000         0.000         0.000         0.000
  60                          31.036         0.000         0.000         0.000         0.000
  61                         137.575         0.000         0.000         0.000         0.000
  62                         143.456         0.000         0.000         0.000         0.000
  64                          16.864         0.000         0.000         0.000         0.000
  ------------------------------------------------------------------------------------------
  System                    3484.356         0.000         0.000         0.000         0.000
  
  
  ******************
  Node Depth Summary
  ******************
  
  ---------------------------------------------------------------------------------
                                 Average  Maximum  Maximum  Time of Max    Reported
                                   Depth    Depth      HGL   Occurrence   Max Depth
  Node                 Type       Meters   Meters   Meters  days hr:min      Meters
  ---------------------------------------------------------------------------------
  WS01000070           JUNCTION     0.00     0.00     0.00     0  00:00        0.00
  WS01000323           JUNCTION     0.00     0.00     0.00     0  00:00        0.00
  WS01000533           JUNCTION     0.00     0.00     6.86     0  00:00        0.00
  WS01005172           JUNCTION     0.00     0.00     0.00     0  00:00        0.00
  WS01005181           JUNCTION     0.00     0.00     0.00     0  00:00        0.00
  WS01009841           JUNCTION     0.00     0.00     0.00     0  00:00        0.00
  WS02000078           JUNCTION     0.00     0.00     0.00     0  00:00        0.00
  WS02000112           JUNCTION     0.00     0.00     0.00     0  00:00        0.00
  WS02000136           JUNCTION     0.00     0.00     0.00     0  00:00        0.00
  WS02001211           JUNCTION     0.43     0.50     5.34     0  03:14        0.50
  WS02001212           JUNCTION     0.37     0.49     5.29     0  03:13        0.48
  WS02001213           JUNCTION     0.47     0.61     5.31     0  03:13        0.61
  WS02003059           JUNCTION     0.45     0.63     5.28     0  03:12        0.63
  WS02003060           JUNCTION     0.51     0.71     5.26     0  03:11        0.71
  WS02003066           JUNCTION     0.21     0.34     5.64     0  02:52        0.34
  WS02003067           JUNCTION     0.36     0.58     5.90     0  03:05        0.58
  WS02003071           JUNCTION     0.56     0.80     5.20     0  03:10        0.79
  WS02003072           JUNCTION     0.48     0.74     5.11     0  03:09        0.74
  WS02003073           JUNCTION     0.55     0.88     5.12     0  03:09        0.82
  WS02003076           JUNCTION     0.50     0.82     5.05     0  03:09        0.74
  WS02003077           JUNCTION     0.08     0.13     5.14     0  03:03        0.13
  WS02003078           JUNCTION     0.05     0.08     6.98     0  03:03        0.08
  WS02003079           JUNCTION     0.16     0.29     7.20     0  03:03        0.29
  WS02003093           JUNCTION     0.04     0.10     7.44     0  03:01        0.10
  WS02003094           JUNCTION     0.14     0.22     7.44     0  03:01        0.22
  WS02003098           JUNCTION     0.09     0.15     7.32     0  03:03        0.15
  WS02003099           JUNCTION     0.17     0.29     7.33     0  03:02        0.29
  WS02003102           JUNCTION     0.16     0.28     7.31     0  03:01        0.28
  WS02003103           JUNCTION     0.18     0.30     7.27     0  03:02        0.30
  WS02003104           JUNCTION     0.17     0.30     7.26     0  03:02        0.30
  WS02003106           JUNCTION     0.18     0.30     7.23     0  03:03        0.30
  WS02004050           JUNCTION     0.34     0.49     4.71     0  03:10        0.49
  WS02004053           JUNCTION     0.00     0.00     0.00     0  00:00        0.00
  WS02004136           JUNCTION     0.17     0.18     6.91     0  01:15        0.18
  WS02004139           JUNCTION     0.35     0.40     5.36     0  03:15        0.40
  WS02004401           JUNCTION     0.35     0.59     6.59     0  03:04        0.59
  WS02004402           JUNCTION     0.36     0.61     6.57     0  03:04        0.61
  WS02004403           JUNCTION     0.35     0.61     6.54     0  03:04        0.61
  WS02004404           JUNCTION     0.43     0.69     6.54     0  03:04        0.69
  WS02004405           JUNCTION     0.44     0.69     6.53     0  03:04        0.69
  WS02004406           JUNCTION     0.42     0.67     6.50     0  03:04        0.67
  WS02004407           JUNCTION     0.39     0.63     6.43     0  03:04        0.63
  WS02004409           JUNCTION     0.38     0.61     6.38     0  03:04        0.61
  WS02004410           JUNCTION     0.37     0.59     6.31     0  03:04        0.59
  WS02004411           JUNCTION     0.35     0.55     6.23     0  03:04        0.55
  WS02004412           JUNCTION     0.30     0.49     6.13     0  03:04        0.49
  WS02004413           JUNCTION     0.31     0.51     5.98     0  03:05        0.51
  WS02004997           JUNCTION     5.60     6.69     8.30     0  02:00        6.68
  WS02005192           JUNCTION     0.17     0.28     8.15     0  02:31        0.28
  WS02005193           JUNCTION     0.19     0.31     8.13     0  03:01        0.31
  WS02005196           JUNCTION     0.18     0.29     8.14     0  03:01        0.29
  WS02006109           JUNCTION     0.39     0.62     7.24     0  03:03        0.62
  WS02006110           JUNCTION     0.36     0.57     7.17     0  03:03        0.57
  WS02006111           JUNCTION     0.20     0.34     6.92     0  03:03        0.34
  WS02006112           JUNCTION     0.37     0.60     6.72     0  03:04        0.60
  WS02006113           JUNCTION     0.31     0.48     7.07     0  03:02        0.48
  WS02006115           JUNCTION     0.33     0.56     6.66     0  03:04        0.56
  WS02006116           JUNCTION     0.36     0.59     6.63     0  03:04        0.59
  WS02006183           JUNCTION     0.00     0.00     0.00     0  00:00        0.00
  WS02006228           JUNCTION     0.40     0.64     7.29     0  03:04        0.64
  WS02006229           JUNCTION     0.37     0.62     7.31     0  03:04        0.62
  WS02006230           JUNCTION     0.35     0.60     7.35     0  03:04        0.60
  WS02006231           JUNCTION     0.26     0.47     7.37     0  03:04        0.47
  WS02006232           JUNCTION     0.24     0.41     7.44     0  03:03        0.41
  WS02006234           JUNCTION     0.24     0.38     7.54     0  03:04        0.38
  WS02006235           JUNCTION     0.28     0.44     7.61     0  03:04        0.44
  WS02006238           JUNCTION     0.28     0.45     7.63     0  03:04        0.45
  WS02006239           JUNCTION     0.30     0.49     7.70     0  03:04        0.49
  WS02006242           JUNCTION     0.33     0.52     7.82     0  03:03        0.52
  WS02006240           JUNCTION     0.27     0.45     7.74     0  03:03        0.45
  WS02006243           JUNCTION     0.26     0.44     7.86     0  03:03        0.44
  WS02006245           JUNCTION     0.26     0.44     7.93     0  03:02        0.44
  WS02006247           JUNCTION     0.29     0.47     7.98     0  03:02        0.47
  WS02006248           JUNCTION     0.24     0.41     8.00     0  03:02        0.41
  WS02006249           JUNCTION     0.27     0.44     8.04     0  03:02        0.44
  WS02006251           JUNCTION     0.25     0.43     8.10     0  03:02        0.43
  WS02006253           JUNCTION     0.19     0.32     8.12     0  03:01        0.32
  WS02618401           JUNCTION     0.00     0.00     0.00     0  00:00        0.00
  WS8802               JUNCTION     0.00     0.00     4.38     0  00:00        0.00
  WSA1649              JUNCTION     0.00     0.00     0.00     0  00:00        0.00
  WSF200               JUNCTION     0.20     0.34     5.44     0  02:52        0.33
  XR-Inflow            JUNCTION     5.45     6.55     8.36     0  02:00        6.55
  WS02004114           JUNCTION     5.58     6.65     8.25     0  02:00        6.65
  outfall-2            OUTFALL      0.00     0.00     7.00     0  00:00        0.00
  outfall-5            OUTFALL      0.00     0.00     7.67     0  00:00        0.00
  outfall-14           OUTFALL      0.00     0.00     7.66     0  00:00        0.00
  outfall-16           OUTFALL      0.00     0.00     8.39     0  00:00        0.00
  12                   OUTFALL      0.34     0.49     0.49     0  03:10        0.49
  XR-storage           STORAGE      6.65     7.72     8.22     0  01:42        7.72
  CC-storage           STORAGE      3.53     5.03     8.21     0  02:29        5.02
  JK-storage           STORAGE      4.02     4.80     7.80     0  01:41        4.80
  
  
  *******************
  Node Inflow Summary
  *******************
  
  -------------------------------------------------------------------------------------------------
                                  Maximum  Maximum                  Lateral       Total        Flow
                                  Lateral    Total  Time of Max      Inflow      Inflow     Balance
                                   Inflow   Inflow   Occurrence      Volume      Volume       Error
  Node                 Type           MLD      MLD  days hr:min    10^6 ltr    10^6 ltr     Percent
  -------------------------------------------------------------------------------------------------
  WS01000070           JUNCTION      0.00     0.00     0  00:00           0           0       0.000 ltr
  WS01000323           JUNCTION      0.00     0.00     0  00:00           0           0       0.000 ltr
  WS01000533           JUNCTION      0.00     0.00     0  00:00           0           0       0.000 ltr
  WS01005172           JUNCTION      0.00     0.00     0  00:00           0           0       0.000 ltr
  WS01005181           JUNCTION      0.00     0.00     0  00:00           0           0       0.000 ltr
  WS01009841           JUNCTION      0.00     0.00     0  00:00           0           0       0.000 ltr
  WS02000078           JUNCTION      0.00     0.00     0  00:00           0           0       0.000 ltr
  WS02000112           JUNCTION      0.00     0.00     0  00:00           0           0       0.000 ltr
  WS02000136           JUNCTION      0.00     0.00     0  00:00           0           0       0.000 ltr
  WS02001211           JUNCTION      0.25    34.65     0  03:16      0.0407         4.9       0.528
  WS02001212           JUNCTION      0.21    36.02     0  03:14      0.0346         4.9       0.296
  WS02001213           JUNCTION      0.30    39.78     0  03:16      0.0489        4.94       0.408
  WS02003059           JUNCTION      0.23    37.16     0  03:17      0.0378        4.96       0.496
  WS02003060           JUNCTION      0.16   109.42     0  03:06      0.0252        9.73       0.382
  WS02003066           JUNCTION      0.08    90.45     0  03:05      0.0122        4.76       0.186
  WS02003067           JUNCTION      0.26    74.82     0  03:05      0.0395        4.75       0.182
  WS02003071           JUNCTION      0.35   109.77     0  03:12      0.0538        9.74       0.403
  WS02003072           JUNCTION      0.24   118.16     0  03:11      0.0382        9.74       0.263
  WS02003073           JUNCTION      0.07   134.03     0  03:10     0.00978        10.4       0.231
  WS02003076           JUNCTION      0.72   140.57     0  03:09        0.12        10.5       0.135
  WS02003077           JUNCTION      0.04    11.80     0  03:03      0.0059       0.657       0.127
  WS02003078           JUNCTION      0.03    11.77     0  03:03     0.00419       0.651      -0.011
  WS02003079           JUNCTION      0.04    11.76     0  03:03     0.00561       0.648       0.237
  WS02003093           JUNCTION      0.02     0.05     0  03:01     0.00306     0.00331       0.835
  WS02003094           JUNCTION      6.93     6.93     0  03:01       0.359       0.362       0.909
  WS02003098           JUNCTION      0.02     6.78     0  03:01     0.00293       0.362       0.574
  WS02003099           JUNCTION      0.07     6.73     0  03:02      0.0109        0.37       1.172
  WS02003102           JUNCTION      5.52    11.90     0  03:01       0.275       0.641       0.568
  WS02003103           JUNCTION      0.02    11.79     0  03:01     0.00239        0.64       0.412
  WS02003104           JUNCTION      0.02    11.76     0  03:02     0.00302        0.64       0.349
  WS02003106           JUNCTION      0.05    11.77     0  03:02     0.00727       0.645       0.420
  WS02004050           JUNCTION      0.72   157.48     0  03:09       0.119        10.6       0.595
  WS02004053           JUNCTION      0.00     0.00     0  00:00           0           0       0.000 ltr
  WS02004136           JUNCTION      0.44    32.92     0  01:15      0.0703        4.81       0.067
  WS02004139           JUNCTION      0.38    33.58     0  01:15      0.0619        4.87       0.370
  WS02004401           JUNCTION      0.05    53.00     0  03:04     0.00897        3.33       0.254
  WS02004402           JUNCTION      0.22    53.20     0  03:05      0.0335        3.36       0.222
  WS02004403           JUNCTION      0.23    53.45     0  03:05      0.0349        3.39       0.183
  WS02004404           JUNCTION      0.24    53.71     0  03:05      0.0365        3.42       0.173
  WS02004405           JUNCTION      3.79    56.58     0  03:05       0.192         3.6       0.248
  WS02004406           JUNCTION      8.33    64.04     0  03:05       0.469        4.06       0.338
  WS02004407           JUNCTION      0.11    64.17     0  03:05      0.0171        4.07       0.301
  WS02004409           JUNCTION      5.44    68.95     0  03:04       0.306        4.36       0.251
  WS02004410           JUNCTION      0.15    69.11     0  03:04      0.0226        4.37       0.253
  WS02004411           JUNCTION      0.25    69.37     0  03:05      0.0379         4.4       0.220
  WS02004412           JUNCTION      6.33    74.39     0  03:04       0.324        4.71       0.169
  WS02004413           JUNCTION      0.11    74.49     0  03:04      0.0172        4.72       0.164
  WS02004997           JUNCTION      0.42    63.57     0  03:00      0.0693        7.69       0.507
  WS02005192           JUNCTION      6.41     6.41     0  03:01        0.33       0.331       0.199
  WS02005193           JUNCTION      0.09     6.79     0  02:30      0.0146       0.381       0.365
  WS02005196           JUNCTION      0.12     6.50     0  03:01       0.019       0.355       0.396
  WS02006109           JUNCTION      0.08    46.79     0  03:04      0.0135        2.93       0.521
  WS02006110           JUNCTION      0.08    46.90     0  03:05      0.0132        2.93       0.469
  WS02006111           JUNCTION      0.24    52.65     0  03:03      0.0366        3.29       0.172
  WS02006112           JUNCTION      0.18    52.79     0  03:03      0.0273        3.31       0.380
  WS02006113           JUNCTION      6.56    52.45     0  03:03       0.344        3.26       0.303
  WS02006115           JUNCTION      0.08    52.80     0  03:03      0.0134        3.31       0.357
  WS02006116           JUNCTION      0.24    52.95     0  03:04       0.036        3.33       0.299
  WS02006183           JUNCTION      0.00     0.00     0  00:00           0           0       0.000 ltr
  WS02006228           JUNCTION     11.09    46.69     0  03:04       0.639        2.93       0.395
  WS02006229           JUNCTION      0.13    35.63     0  03:04        0.02         2.3       0.424
  WS02006230           JUNCTION      0.07    35.51     0  03:04      0.0116        2.29       0.462
  WS02006231           JUNCTION      0.13    35.45     0  03:03      0.0205        2.29       0.297
  WS02006232           JUNCTION      4.61    35.36     0  03:03       0.235        2.27       0.286
  WS02006234           JUNCTION      0.14    31.54     0  03:04      0.0216        2.04       0.301
  WS02006235           JUNCTION      0.14    31.42     0  03:04      0.0223        2.03       0.190
  WS02006238           JUNCTION      0.15    31.29     0  03:04      0.0235        2.01       0.263
  WS02006239           JUNCTION      0.11    31.16     0  03:03      0.0174        1.99       0.435
  WS02006242           JUNCTION      0.08    31.04     0  03:03      0.0129        1.98       0.491
  WS02006240           JUNCTION      0.06    31.07     0  03:03     0.00992        1.99       0.398
  WS02006243           JUNCTION      0.17    30.99     0  03:02      0.0269        1.98       0.291
  WS02006245           JUNCTION      0.07    30.87     0  03:02      0.0113        1.96       0.223
  WS02006247           JUNCTION      4.72    30.81     0  03:01       0.271        1.95       0.225
  WS02006248           JUNCTION      0.12    26.27     0  03:02      0.0192        1.68       0.145
  WS02006249           JUNCTION      0.19    26.17     0  03:01      0.0286        1.66       0.261
  WS02006251           JUNCTION      2.22    26.04     0  03:01       0.115        1.64       0.170
  WS02006253           JUNCTION      0.11    23.92     0  03:01      0.0173        1.54       0.031
  WS02618401           JUNCTION      0.00     0.00     0  00:00           0           0       0.000 ltr
  WS8802               JUNCTION      0.00     0.00     0  00:00           0           0       0.000 ltr
  WSA1649              JUNCTION      0.00     0.00     0  00:00           0           0       0.000 ltr
  WSF200               JUNCTION      0.14    76.96     0  03:06      0.0216        4.77      -0.006
  XR-Inflow            JUNCTION    172.61   172.61     0  03:01        12.1        12.1       0.195
  WS02004114           JUNCTION      0.57    64.10     0  02:39      0.0916        7.75       0.311
  outfall-2            OUTFALL       0.00     0.00     0  00:00           0           0       0.000 ltr
  outfall-5            OUTFALL       0.00     0.00     0  00:00           0           0       0.000 ltr
  outfall-14           OUTFALL       0.00     0.00     0  00:00           0           0       0.000 ltr
  outfall-16           OUTFALL       0.00     0.00     0  00:00           0           0       0.000 ltr
  12                   OUTFALL       0.00   131.61     0  03:10           0        10.5       0.000
  XR-storage           STORAGE       0.00    64.10     0  02:39           0        7.72       0.605
  CC-storage           STORAGE      20.14    20.14     0  03:01        1.24        1.24       0.001
  JK-storage           STORAGE      20.45    20.45     0  03:01        1.17        1.17       0.004
  
  
  **********************
  Node Surcharge Summary
  **********************
  
  Surcharging occurs when water rises above the top of the highest conduit.
  ---------------------------------------------------------------------
                                               Max. Height   Min. Depth
                                   Hours       Above Crown    Below Rim
  Node                 Type      Surcharged         Meters       Meters
  ---------------------------------------------------------------------
  WS01000070           JUNCTION        4.00          0.000        0.000
  WS01000323           JUNCTION        4.00          0.000        0.000
  WS01000533           JUNCTION        4.00          0.000        2.147
  WS01005172           JUNCTION        4.00          0.000        0.000
  WS01005181           JUNCTION        4.00          0.000        0.000
  WS01009841           JUNCTION        4.00          0.000        0.000
  WS02000078           JUNCTION        4.00          0.000        0.000
  WS02000112           JUNCTION        4.00          0.000        0.000
  WS02000136           JUNCTION        4.00          0.000        0.000
  WS02004053           JUNCTION        4.00          0.000        0.000
  WS02004997           JUNCTION        3.88          5.791        0.209
  WS02006183           JUNCTION        4.00          0.000        0.000
  WS02618401           JUNCTION        4.00          0.000        0.000
  WS8802               JUNCTION        4.00          0.000        4.942
  WSA1649              JUNCTION        4.00          0.000        0.000
  XR-Inflow            JUNCTION        3.87          5.650        0.000
  WS02004114           JUNCTION        3.88          5.752        0.763
  
  
  *********************
  Node Flooding Summary
  *********************
  
  Flooding refers to all water that overflows a node, whether it ponds or not.
  --------------------------------------------------------------------------
                                                             Total   Maximum
                                 Maximum   Time of Max       Flood    Ponded
                        Hours       Rate    Occurrence      Volume     Depth
  Node                 Flooded       MLD   days hr:min    10^6 ltr    Meters
  --------------------------------------------------------------------------
  XR-Inflow               1.94    109.45      0  03:01       4.481     0.000
  XR-storage              2.30     31.62      0  02:39       2.868     0.000
  JK-storage              2.32     20.45      0  03:01       1.038     0.000
  
  
  **********************
  Storage Volume Summary
  **********************
  
  --------------------------------------------------------------------------------------------------
                         Average     Avg  Evap Exfil       Maximum     Max    Time of Max    Maximum
                          Volume    Pcnt  Pcnt  Pcnt        Volume    Pcnt     Occurrence    Outflow
  Storage Unit           1000 m3    Full  Loss  Loss       1000 m3    Full    days hr:min        MLD
  --------------------------------------------------------------------------------------------------
  XR-storage               0.054      86     0     0         0.063     100       0  01:42      32.48
  CC-storage               0.100      63     0     0         0.142      89       0  02:29      17.28
  JK-storage               0.114      84     0     0         0.136     100       0  01:41       0.00
  
  
  ***********************
  Outfall Loading Summary
  ***********************
  
  ---------------------------------------------------------------------------------------------------------------------------------
                         Flow       Avg       Max       Total         Total         Total         Total         Total         Total
                         Freq      Flow      Flow      Volume           COD         NH3-N            TN            TP            SS
  Outfall Node           Pcnt       MLD       MLD    10^6 ltr            kg            kg            kg            kg            kg
  ---------------------------------------------------------------------------------------------------------------------------------
  outfall-2              0.00      0.00      0.00       0.000         0.000         0.000         0.000         0.000         0.000
  outfall-5              0.00      0.00      0.00       0.000         0.000         0.000         0.000         0.000         0.000
  outfall-14             0.00      0.00      0.00       0.000         0.000         0.000         0.000         0.000         0.000
  outfall-16             0.00      0.00      0.00       0.000         0.000         0.000         0.000         0.000         0.000
  12                    99.98     73.52    131.61      10.521      1831.752         0.000         0.000         0.000         0.000
  ---------------------------------------------------------------------------------------------------------------------------------
  System                20.00     73.52    131.61      10.521      1831.752         0.000         0.000         0.000         0.000
  
  
  ********************
  Link Flow Summary
  ********************
  
  -----------------------------------------------------------------------------
                                 Maximum  Time of Max   Maximum    Max/    Max/
                                  |Flow|   Occurrence   |Veloc|    Full    Full
  Link                 Type          MLD  days hr:min     m/sec    Flow   Depth
  -----------------------------------------------------------------------------
  WSL49                CONDUIT    139.85     0  03:09      2.35    1.74    0.69
  WSL1465              CONDUIT     39.24     0  03:33      1.66    0.36    0.66
  WSL1472              CONDUIT    117.95     0  03:11      1.97    1.34    0.63
  WSL1475              CONDUIT    156.76     0  03:09      3.01    1.67    0.44
  WSL1476              CONDUIT     11.80     0  03:03      0.52    0.06    0.58
  WSL1477              CONDUIT     11.75     0  03:03      2.01    0.46    0.31
  WSL1490              CONDUIT     35.81     0  03:14      1.39    0.58    0.49
  WSL1491              CONDUIT     39.51     0  03:16      1.45    0.23    0.54
  WSL1492              CONDUIT     36.94     0  03:17      1.39    0.57    0.61
  WSL1507              CONDUIT      0.13     0  03:03      0.11    0.00    0.20
  WSL1508              CONDUIT      6.77     0  03:01      0.90    0.19    0.23
  WSL1512              CONDUIT      6.68     0  03:02      0.60    0.05    0.22
  WSL1513              CONDUIT      6.80     0  03:03      0.50    0.40    0.35
  WSL1515              CONDUIT     90.38     0  03:05      2.69    0.88    0.38
  WSL1516              CONDUIT     11.77     0  03:03      4.02    0.04    0.18
  WSL1518              CONDUIT     11.78     0  03:01      0.83    0.23    0.36
  WSL1519              CONDUIT     11.73     0  03:02      0.80    0.29    0.37
  WSL1521              CONDUIT     11.73     0  03:03      0.82    0.34    0.37
  WSL1543              CONDUIT     11.74     0  03:02      0.79    0.37    0.37
  WSL1961              CONDUIT     33.19     0  01:15      3.07    0.07    0.29
  WSL1964              CONDUIT     34.42     0  03:16      1.38    0.19    0.37
  WSL2010              CONDUIT     53.26     0  03:05      1.25    0.68    0.61
  WSL2011              CONDUIT     53.52     0  03:05      1.15    0.34    0.65
  WSL2012              CONDUIT     53.77     0  03:06      1.08    0.82    0.69
  WSL2013              CONDUIT     56.62     0  03:05      1.15    1.41    0.68
  WSL2014              CONDUIT     64.08     0  03:05      1.37    1.02    0.65
  WSL2015              CONDUIT     64.23     0  03:05      1.45    0.86    0.62
  WSL2016              CONDUIT     68.99     0  03:04      1.62    0.79    0.60
  WSL2017              CONDUIT     69.17     0  03:05      1.74    0.84    0.57
  WSL2018              CONDUIT     74.39     0  03:04      2.19    0.44    0.50
  WSL2019              CONDUIT     74.61     0  03:05      2.00    0.44    0.55
  WSL2028              CONDUIT     53.03     0  03:05      1.25    0.57    0.60
  WSL2029              CONDUIT     69.45     0  03:05      1.97    0.88    0.52
  WSL2038              CONDUIT      6.39     0  03:01      0.66    0.32    0.47
  WSL2039              CONDUIT      9.03     0  02:22      1.38    0.46    0.53
  WSL2041              CONDUIT      6.48     0  03:01      0.87    0.32    0.50
  WSL2294              CONDUIT     46.82     0  03:05      1.35    1.57    0.74
  WSL2295              CONDUIT     46.95     0  03:05      1.57    2.11    0.66
  WSL2296              CONDUIT     52.64     0  03:03      2.00    0.30    0.58
  WSL2297              CONDUIT     52.72     0  03:03      1.30    1.01    0.58
  WSL2298              CONDUIT     52.46     0  03:03      2.35    2.41    0.51
  WSL2301              CONDUIT     52.76     0  03:04      1.31    0.49    0.58
  WSL2302              CONDUIT     52.94     0  03:04      1.26    0.65    0.59
  WSL2441              CONDUIT     46.71     0  03:04      1.27    1.20    0.79
  WSL2442              CONDUIT     35.52     0  03:04      1.26    0.91    0.87
  WSL2443              CONDUIT     35.44     0  03:04      1.44    0.55    0.76
  WSL2444              CONDUIT     35.34     0  03:03      1.71    0.56    0.62
  WSL2446              CONDUIT     31.56     0  03:04      1.65    0.54    0.57
  WSL2447              CONDUIT     31.43     0  03:04      1.54    1.62    0.59
  WSL2448              CONDUIT     31.30     0  03:04      1.41    0.88    0.64
  WSL2449              CONDUIT     31.16     0  03:04      1.32    1.09    0.67
  WSL2450              CONDUIT     31.06     0  03:03      1.32    0.65    0.67
  WSL2451              CONDUIT     31.01     0  03:03      1.27    2.02    0.69
  WSL2452              CONDUIT     30.96     0  03:03      1.29    0.59    0.68
  WSL2454              CONDUIT     30.85     0  03:02      1.46    0.72    0.63
  WSL2478              CONDUIT     30.80     0  03:02      1.35    1.09    0.65
  WSL2479              CONDUIT     26.28     0  03:02      1.24    0.50    0.63
  WSL2480              CONDUIT     26.16     0  03:02      1.27    1.21    0.61
  WSL2482              CONDUIT     26.01     0  03:01      1.23    0.68    0.62
  WSL2484              CONDUIT     23.92     0  03:02      1.81    0.34    0.54
  WSL2493              CONDUIT     35.66     0  03:04      1.07    0.60    0.79
  WSL2867              CONDUIT     76.84     0  03:06      3.71    0.16    0.28
  WSL2868              CONDUIT     75.17     0  03:04      1.94    0.14    0.43
  WSL348               CONDUIT     63.16     0  03:00      1.88    0.58    1.00
  WSL175               CONDUIT     63.56     0  03:00      2.29    2.14    1.00
  WSL1467              CONDUIT    109.48     0  03:12      1.81    0.58    0.63
  WSL1473              CONDUIT    123.73     0  03:10      2.09    0.51    0.66
  XRpipe               CONDUIT     64.10     0  02:39      2.54    0.16    1.00
  8                    CONDUIT      0.00     0  00:00      0.00    0.00    0.00
  19                   CONDUIT      0.00     0  00:00      0.00    0.00    0.00
  17                   CONDUIT      0.00     0  00:00      0.00    0.00    0.00
  4                    CONDUIT      0.00     0  00:00      0.00    0.00    0.00
  2                    CONDUIT    131.61     0  03:10      4.02    0.48    0.49
  XR-Pump-1            PUMP         8.12     0  00:08              1.00
  XR-Pump-3            PUMP         8.12     0  00:09              1.00
  XR-Pump-2            PUMP         8.12     0  00:09              1.00
  XR-Pump-4            PUMP         8.12     0  01:15              1.00
  CC-Pump-1            PUMP        17.28     0  01:29              1.00
  CC-Pump-2            PUMP         0.00     0  00:00              0.00
  JK-Pump-1            PUMP         0.00     0  00:00              0.00
  JK-Pump-2            PUMP         0.00     0  00:00              0.00
  
  
  ***************************
  Flow Classification Summary
  ***************************
  
  -------------------------------------------------------------------------------------
                      Adjusted    ---------- Fraction of Time in Flow Class ---------- 
                       /Actual         Up    Down  Sub   Sup   Up    Down  Norm  Inlet 
  Conduit               Length    Dry  Dry   Dry   Crit  Crit  Crit  Crit  Ltd   Ctrl  
  -------------------------------------------------------------------------------------
  WSL49                   1.00   0.00  0.00  0.00  1.00  0.00  0.00  0.00  0.00  0.00
  WSL1465                 1.00   0.00  0.00  0.00  1.00  0.00  0.00  0.00  0.10  0.00
  WSL1472                 1.00   0.00  0.00  0.00  1.00  0.00  0.00  0.00  0.00  0.00
  WSL1475                 1.00   0.00  0.00  0.00  0.18  0.82  0.00  0.00  0.01  0.00
  WSL1476                 1.00   0.00  0.00  0.00  1.00  0.00  0.00  0.00  1.00  0.00
  WSL1477                 1.00   0.00  0.00  0.00  0.01  0.99  0.00  0.00  0.55  0.00
  WSL1490                 1.00   0.00  0.00  0.00  1.00  0.00  0.00  0.00  0.00  0.00
  WSL1491                 1.00   0.00  0.00  0.00  1.00  0.00  0.00  0.00  0.04  0.00
  WSL1492                 1.00   0.00  0.00  0.00  1.00  0.00  0.00  0.00  0.00  0.00
  WSL1507                 1.00   0.00  0.00  0.00  1.00  0.00  0.00  0.00  0.47  0.00
  WSL1508                 1.00   0.00  0.00  0.00  1.00  0.00  0.00  0.00  0.00  0.00
  WSL1512                 1.00   0.00  0.00  0.00  1.00  0.00  0.00  0.00  0.96  0.00
  WSL1513                 1.00   0.00  0.00  0.00  1.00  0.00  0.00  0.00  0.00  0.00
  WSL1515                 1.00   0.00  0.00  0.00  0.08  0.92  0.00  0.00  0.06  0.00
  WSL1516                 1.00   0.00  0.00  0.00  0.00  1.00  0.00  0.00  1.00  0.00
  WSL1518                 1.00   0.00  0.00  0.00  1.00  0.00  0.00  0.00  0.40  0.00
  WSL1519                 1.00   0.00  0.00  0.00  1.00  0.00  0.00  0.00  0.32  0.00
  WSL1521                 1.00   0.00  0.00  0.00  1.00  0.00  0.00  0.00  0.02  0.00
  WSL1543                 1.00   0.00  0.00  0.00  1.00  0.00  0.00  0.00  0.02  0.00
  WSL1961                 1.00   0.00  0.00  0.00  0.01  0.99  0.00  0.00  0.98  0.00
  WSL1964                 1.00   0.00  0.00  0.00  1.00  0.00  0.00  0.00  0.05  0.00
  WSL2010                 1.00   0.00  0.00  0.00  1.00  0.00  0.00  0.00  0.03  0.00
  WSL2011                 1.00   0.00  0.00  0.00  1.00  0.00  0.00  0.00  0.27  0.00
  WSL2012                 1.00   0.00  0.00  0.00  1.00  0.00  0.00  0.00  0.00  0.00
  WSL2013                 1.00   0.00  0.00  0.00  1.00  0.00  0.00  0.00  0.00  0.00
  WSL2014                 1.00   0.00  0.00  0.00  1.00  0.00  0.00  0.00  0.00  0.00
  WSL2015                 1.00   0.00  0.00  0.00  1.00  0.00  0.00  0.00  0.02  0.00
  WSL2016                 1.00   0.00  0.00  0.00  1.00  0.00  0.00  0.00  0.01  0.00
  WSL2017                 1.00   0.00  0.00  0.00  1.00  0.00  0.00  0.00  0.04  0.00
  WSL2018                 1.00   0.00  0.00  0.00  0.01  0.99  0.00  0.00  0.07  0.00
  WSL2019                 1.00   0.00  0.00  0.00  0.57  0.43  0.00  0.00  0.11  0.00
  WSL2028                 1.00   0.00  0.00  0.00  1.00  0.00  0.00  0.00  0.06  0.00
  WSL2029                 1.00   0.00  0.00  0.00  0.61  0.39  0.00  0.00  0.00  0.00
  WSL2038                 1.00   0.00  0.00  0.00  1.00  0.00  0.00  0.00  0.02  0.00
  WSL2039                 1.00   0.00  0.00  0.00  0.85  0.15  0.00  0.00  0.01  0.00
  WSL2041                 1.00   0.00  0.00  0.00  1.00  0.00  0.00  0.00  0.29  0.00
  WSL2294                 1.00   0.00  0.00  0.00  1.00  0.00  0.00  0.00  0.00  0.00
  WSL2295                 1.00   0.00  0.00  0.00  1.00  0.00  0.00  0.00  0.00  0.00
  WSL2296                 1.00   0.00  0.00  0.00  0.19  0.81  0.00  0.00  0.62  0.00
  WSL2297                 1.00   0.00  0.00  0.00  1.00  0.00  0.00  0.00  0.00  0.00
  WSL2298                 1.00   0.00  0.00  0.00  0.05  0.95  0.00  0.00  0.00  0.00
  WSL2301                 1.00   0.00  0.00  0.00  1.00  0.00  0.00  0.00  0.09  0.00
  WSL2302                 1.00   0.00  0.00  0.00  1.00  0.00  0.00  0.00  0.07  0.00
  WSL2441                 1.00   0.00  0.00  0.00  1.00  0.00  0.00  0.00  0.01  0.00
  WSL2442                 1.00   0.00  0.00  0.00  1.00  0.00  0.00  0.00  0.20  0.00
  WSL2443                 1.00   0.00  0.00  0.00  1.00  0.00  0.00  0.00  0.48  0.00
  WSL2444                 1.00   0.00  0.00  0.00  0.28  0.72  0.00  0.00  0.36  0.00
  WSL2446                 1.00   0.00  0.00  0.00  0.41  0.59  0.00  0.00  0.15  0.00
  WSL2447                 1.00   0.00  0.00  0.00  1.00  0.00  0.00  0.00  0.00  0.00
  WSL2448                 1.00   0.00  0.00  0.00  1.00  0.00  0.00  0.00  0.02  0.00
  WSL2449                 1.00   0.00  0.00  0.00  1.00  0.00  0.00  0.00  0.03  0.00
  WSL2450                 1.00   0.00  0.00  0.00  1.00  0.00  0.00  0.00  0.38  0.00
  WSL2451                 1.00   0.00  0.00  0.00  1.00  0.00  0.00  0.00  0.00  0.00
  WSL2452                 1.00   0.00  0.00  0.00  1.00  0.00  0.00  0.00  0.51  0.00
  WSL2454                 1.00   0.00  0.00  0.00  1.00  0.00  0.00  0.00  0.08  0.00
  WSL2478                 1.00   0.00  0.00  0.00  1.00  0.00  0.00  0.00  0.00  0.00
  WSL2479                 1.00   0.00  0.00  0.00  1.00  0.00  0.00  0.00  0.43  0.00
  WSL2480                 1.00   0.00  0.00  0.00  1.00  0.00  0.00  0.00  0.00  0.00
  WSL2482                 1.00   0.00  0.00  0.00  1.00  0.00  0.00  0.00  0.52  0.00
  WSL2484                 1.00   0.00  0.00  0.00  0.98  0.02  0.00  0.00  0.58  0.00
  WSL2493                 1.00   0.00  0.00  0.00  1.00  0.00  0.00  0.00  0.05  0.00
  WSL2867                 1.00   0.00  0.00  0.00  0.00  1.00  0.00  0.00  0.20  0.00
  WSL2868                 1.00   0.00  0.00  0.00  0.97  0.03  0.00  0.00  0.80  0.00
  WSL348                  1.00   0.00  0.00  0.00  1.00  0.00  0.00  0.00  0.01  0.00
  WSL175                  1.00   0.00  0.00  0.00  1.00  0.00  0.00  0.00  0.00  0.00
  WSL1467                 1.00   0.00  0.00  0.00  1.00  0.00  0.00  0.00  0.06  0.00
  WSL1473                 1.00   0.00  0.00  0.00  1.00  0.00  0.00  0.00  0.05  0.00
  XRpipe                  1.00   0.00  0.00  0.00  1.00  0.00  0.00  0.00  0.01  0.00
  8                       1.00   1.00  0.00  0.00  0.00  0.00  0.00  0.00  0.00  0.00
  19                      1.00   1.00  0.00  0.00  0.00  0.00  0.00  0.00  0.00  0.00
  17                      1.00   1.00  0.00  0.00  0.00  0.00  0.00  0.00  0.00  0.00
  4                       1.00   1.00  0.00  0.00  0.00  0.00  0.00  0.00  0.00  0.00
  2                       1.00   0.00  0.00  0.00  0.00  1.00  0.00  0.00  0.18  0.00
  
  
  *************************
  Conduit Surcharge Summary
  *************************
  
  ----------------------------------------------------------------------------
                                                           Hours        Hours 
                         --------- Hours Full --------   Above Full   Capacity
  Conduit                Both Ends  Upstream  Dnstream   Normal Flow   Limited
  ----------------------------------------------------------------------------
  WSL49                       0.01      0.01      0.01      1.29         0.01
  WSL1472                     0.01      0.01      0.01      0.73         0.01
  WSL1475                     0.01      0.01      0.01      0.81         0.01
  WSL1476                     0.01      0.01      0.04      0.01         0.01
  WSL2013                     0.01      0.01      0.01      0.76         0.01
  WSL2014                     0.01      0.01      0.01      0.14         0.01
  WSL2294                     0.01      0.01      0.01      1.07         0.01
  WSL2295                     0.01      0.01      0.01      1.46         0.01
  WSL2297                     0.01      0.01      0.01      0.09         0.01
  WSL2298                     0.01      0.01      0.01      1.68         0.01
  WSL2441                     0.01      0.01      0.01      0.54         0.01
  WSL2447                     0.01      0.01      0.01      1.36         0.01
  WSL2449                     0.01      0.01      0.01      0.30         0.01
  WSL2451                     0.01      0.01      0.01      1.53         0.01
  WSL2478                     0.01      0.01      0.01      0.28         0.01
  WSL2480                     0.01      0.01      0.01      0.90         0.01
  WSL348                      3.87      3.87      3.88      0.01         0.01
  WSL175                      3.88      3.88      3.88      2.61         2.69
  XRpipe                      3.88      3.88      3.96      0.01         0.01
  
  
  ***************
  Pumping Summary
  ***************
  
  ---------------------------------------------------------------------------------------------------------
                                                  Min       Avg       Max     Total     Power    % Time Off
                        Percent   Number of      Flow      Flow      Flow    Volume     Usage    Pump Curve
  Pump                 Utilized   Start-Ups       MLD       MLD       MLD  10^6 ltr     Kw-hr    Low   High
  ---------------------------------------------------------------------------------------------------------
  XR-Pump-1               96.32           1      0.00      8.12      8.12     1.303      6.43    0.0    0.0
  XR-Pump-3               91.52          17      0.00      8.12      8.12     1.239      5.94    0.0    0.0
  XR-Pump-2               96.18           1      0.00      8.12      8.12     1.301      6.41    0.0    0.0
  XR-Pump-4               66.57           9      0.00      8.12      8.12     0.901      3.42    0.0    0.0
  CC-Pump-1               39.86           6      0.00     17.28     17.28     1.148      3.06    0.0    0.0
  CC-Pump-2                0.00           0      0.00      0.00      0.00     0.000      0.00    0.0    0.0
  JK-Pump-1                0.00           0      0.00      0.00      0.00     0.000      0.00    0.0    0.0
  JK-Pump-2                0.00           0      0.00      0.00      0.00     0.000      0.00    0.0    0.0
  
  
  ***************************
  Link Pollutant Load Summary
  ***************************
  
  ------------------------------------------------------------------------------------------
                                 COD         NH3-N            TN            TP            SS
  Link                            kg            kg            kg            kg            kg
  ------------------------------------------------------------------------------------------
  WSL49                     1804.099         0.000         0.000         0.000         0.000
  WSL1465                    749.069         0.000         0.000         0.000         0.000
  WSL1472                   1667.065         0.000         0.000         0.000         0.000
  WSL1475                   1821.958         0.000         0.000         0.000         0.000
  WSL1476                    136.302         0.000         0.000         0.000         0.000
  WSL1477                    134.448         0.000         0.000         0.000         0.000
  WSL1490                    736.399         0.000         0.000         0.000         0.000
  WSL1491                    740.154         0.000         0.000         0.000         0.000
  WSL1492                    746.016         0.000         0.000         0.000         0.000
  WSL1507                      0.721         0.000         0.000         0.000         0.000
  WSL1508                     86.145         0.000         0.000         0.000         0.000
  WSL1512                     86.358         0.000         0.000         0.000         0.000
  WSL1513                     87.534         0.000         0.000         0.000         0.000
  WSL1515                    912.416         0.000         0.000         0.000         0.000
  WSL1516                    135.124         0.000         0.000         0.000         0.000
  WSL1518                    132.410         0.000         0.000         0.000         0.000
  WSL1519                    132.752         0.000         0.000         0.000         0.000
  WSL1521                    133.644         0.000         0.000         0.000         0.000
  WSL1543                    132.509         0.000         0.000         0.000         0.000
  WSL1961                    724.559         0.000         0.000         0.000         0.000
  WSL1964                    732.913         0.000         0.000         0.000         0.000
  WSL2010                    555.251         0.000         0.000         0.000         0.000
  WSL2011                    560.036         0.000         0.000         0.000         0.000
  WSL2012                    565.123         0.000         0.000         0.000         0.000
  WSL2013                    596.211         0.000         0.000         0.000         0.000
  WSL2014                    762.973         0.000         0.000         0.000         0.000
  WSL2015                    763.596         0.000         0.000         0.000         0.000
  WSL2016                    848.519         0.000         0.000         0.000         0.000
  WSL2017                    850.224         0.000         0.000         0.000         0.000
  WSL2018                    905.869         0.000         0.000         0.000         0.000
  WSL2019                    907.309         0.000         0.000         0.000         0.000
  WSL2028                    551.092         0.000         0.000         0.000         0.000
  WSL2029                    854.701         0.000         0.000         0.000         0.000
  WSL2038                     54.008         0.000         0.000         0.000         0.000
  WSL2039                     62.785         0.000         0.000         0.000         0.000
  WSL2041                     58.378         0.000         0.000         0.000         0.000
  WSL2294                    536.922         0.000         0.000         0.000         0.000
  WSL2295                    536.814         0.000         0.000         0.000         0.000
  WSL2296                    544.686         0.000         0.000         0.000         0.000
  WSL2297                    546.748         0.000         0.000         0.000         0.000
  WSL2298                    539.607         0.000         0.000         0.000         0.000
  WSL2301                    546.992         0.000         0.000         0.000         0.000
  WSL2302                    551.073         0.000         0.000         0.000         0.000
  WSL2441                    537.227         0.000         0.000         0.000         0.000
  WSL2442                    342.583         0.000         0.000         0.000         0.000
  WSL2443                    341.928         0.000         0.000         0.000         0.000
  WSL2444                    339.293         0.000         0.000         0.000         0.000
  WSL2446                    337.793         0.000         0.000         0.000         0.000
  WSL2447                    334.989         0.000         0.000         0.000         0.000
  WSL2448                    331.754         0.000         0.000         0.000         0.000
  WSL2449                    328.494         0.000         0.000         0.000         0.000
  WSL2450                    326.660         0.000         0.000         0.000         0.000
  WSL2451                    325.969         0.000         0.000         0.000         0.000
  WSL2452                    325.043         0.000         0.000         0.000         0.000
  WSL2454                    321.291         0.000         0.000         0.000         0.000
  WSL2478                    320.001         0.000         0.000         0.000         0.000
  WSL2479                    276.630         0.000         0.000         0.000         0.000
  WSL2480                    273.657         0.000         0.000         0.000         0.000
  WSL2482                    269.395         0.000         0.000         0.000         0.000
  WSL2484                    238.393         0.000         0.000         0.000         0.000
  WSL2493                    344.735         0.000         0.000         0.000         0.000
  WSL2867                    912.844         0.000         0.000         0.000         0.000
  WSL2868                    916.312         0.000         0.000         0.000         0.000
  WSL348                    1139.484         0.000         0.000         0.000         0.000
  WSL175                    1146.065         0.000         0.000         0.000         0.000
  WSL1467                   1664.025         0.000         0.000         0.000         0.000
  WSL1473                   1669.588         0.000         0.000         0.000         0.000
  XRpipe                    1159.016         0.000         0.000         0.000         0.000
  8                            0.000         0.000         0.000         0.000         0.000
  19                           0.000         0.000         0.000         0.000         0.000
  17                           0.000         0.000         0.000         0.000         0.000
  4                            0.000         0.000         0.000         0.000         0.000
  2                         1831.752         0.000         0.000         0.000         0.000
  XR-Pump-1                  197.660         0.000         0.000         0.000         0.000
  XR-Pump-3                  186.831         0.000         0.000         0.000         0.000
  XR-Pump-2                  197.346         0.000         0.000         0.000         0.000
  XR-Pump-4                  131.009         0.000         0.000         0.000         0.000
  CC-Pump-1                  176.095         0.000         0.000         0.000         0.000
  CC-Pump-2                    0.000         0.000         0.000         0.000         0.000
  JK-Pump-1                    0.000         0.000         0.000         0.000         0.000
  JK-Pump-2                    0.000         0.000         0.000         0.000         0.000
  

  Analysis begun on:  Tue Mar 19 20:21:14 2019
  Analysis ended on:  Tue Mar 19 20:21:15 2019
  Total elapsed time: 00:00:01