
  EPA STORM WATER MANAGEMENT MODEL - VERSION 5.1 (Build 5.2.0.dev1)
  --------------------------------------------------------------

  
  *********************************************************
  NOTE: The summary statistics displayed in this report are
  based on results found at every computational time step,  
  not just on results from each reporting time step.
  *********************************************************
  
  ****************
  Analysis Options
  ****************
  Flow Units ............... MLD
  Process Models:
    Rainfall/Runoff ........ YES
    RDII ................... NO
    Snowmelt ............... NO
    Groundwater ............ NO
    Flow Routing ........... YES
    Ponding Allowed ........ NO
    Water Quality .......... YES
  Infiltration Method ...... GREEN_AMPT
  Flow Routing Method ...... DYNWAVE
  Starting Date ............ 08/28/2015 08:00:00
  Ending Date .............. 08/28/2015 12:00:00
  Antecedent Dry Days ...... 4.0
  Report Time Step ......... 00:01:00
  Wet Time Step ............ 00:01:00
  Dry Time Step ............ 00:01:00
  Routing Time Step ........ 5.00 sec
  Variable Time Step ....... YES
  Maximum Trials ........... 8
  Number of Threads ........ 1
  Head Tolerance ........... 0.001500 m
  
  
  **************************        Volume         Depth
  Runoff Quantity Continuity     hectare-m            mm
  **************************     ---------       -------
  Total Precipitation ......         2.762         9.792
  Evaporation Loss .........         0.000         0.000
  Infiltration Loss ........         1.432         5.076
  Surface Runoff ...........         0.553         1.960
  Final Storage ............         0.779         2.761
  Continuity Error (%) .....        -0.048
  
  
  **************************           COD         NH3-N            TN            TP            SS
  Runoff Quality Continuity             kg            kg            kg            kg            kg
  **************************    ----------    ----------    ----------    ----------    ----------
  Initial Buildup ..........     13074.240         0.000         0.000         0.000         0.000
  Surface Buildup ..........       112.842         0.000         0.000         0.000         0.000
  Wet Deposition ...........         0.000         0.000         0.000         0.000         0.000
  Sweeping Removal .........         0.000         0.000         0.000         0.000         0.000
  Infiltration Loss ........        54.932         0.000         0.000         0.000         0.000
  BMP Removal ..............         0.000         0.000         0.000         0.000         0.000
  Surface Runoff ...........       428.069         0.000         0.000         0.000         0.000
  Remaining Buildup ........     12703.715         0.000         0.000         0.000         0.000
  Continuity Error (%) .....         0.003         0.000         0.000         0.000         0.000
  
  
  **************************        Volume        Volume
  Flow Routing Continuity        hectare-m      10^6 ltr
  **************************     ---------     ---------
  Dry Weather Inflow .......         0.000         0.000
  Wet Weather Inflow .......         0.551         5.513
  Groundwater Inflow .......         0.000         0.000
  RDII Inflow ..............         0.000         0.000
  External Inflow ..........         0.561         5.611
  External Outflow .........         0.771         7.714
  Flooding Loss ............         0.253         2.535
  Evaporation Loss .........         0.000         0.000
  Exfiltration Loss ........         0.000         0.000
  Initial Stored Volume ....         0.000         0.000
  Final Stored Volume ......         0.087         0.872
  Continuity Error (%) .....         0.028
  
  
  **************************           COD         NH3-N            TN            TP            SS
  Quality Routing Continuity            kg            kg            kg            kg            kg
  **************************    ----------    ----------    ----------    ----------    ----------
  Dry Weather Inflow .......         0.000         0.000         0.000         0.000         0.000
  Wet Weather Inflow .......       427.077         0.000         0.000         0.000         0.000
  Groundwater Inflow .......         0.000         0.000         0.000         0.000         0.000
  RDII Inflow ..............         0.000         0.000         0.000         0.000         0.000
  External Inflow ..........       937.028         0.000         0.000         0.000         0.000
  External Outflow .........      1015.674         0.000         0.000         0.000         0.000
  Flooding Loss ............       262.842         0.000         0.000         0.000         0.000
  Exfiltration Loss ........         0.000         0.000         0.000         0.000         0.000
  Mass Reacted .............         0.000         0.000         0.000         0.000         0.000
  Initial Stored Mass ......         0.000         0.000         0.000         0.000         0.000
  Final Stored Mass ........        86.572         0.000         0.000         0.000         0.000
  Continuity Error (%) .....        -0.072         0.000         0.000         0.000         0.000
  
  
  *************************
  Highest Continuity Errors
  *************************
  Node WS02003099 (1.32%)
  Node WS02003094 (1.08%)
  
  
  ***************************
  Time-Step Critical Elements
  ***************************
  Link WSL2448 (40.63%)
  Link WSL1477 (33.09%)
  Link WSL2867 (4.13%)
  
  
  ********************************
  Highest Flow Instability Indexes
  ********************************
  Link WSL1477 (90)
  Link WSL1516 (77)
  Link XRpipe (28)
  Link WSL348 (25)
  Link WSL175 (22)
  
  
  *************************
  Routing Time Step Summary
  *************************
  Minimum Time Step           :     2.16 sec
  Average Time Step           :     3.36 sec
  Maximum Time Step           :     5.00 sec
  Percent in Steady State     :     0.00
  Average Iterations per Step :     3.78
  Percent Not Converging      :    17.05
  
  
  ***************************
  Subcatchment Runoff Summary
  ***************************
  
  --------------------------------------------------------------------------------------------------------
                            Total      Total      Total      Total      Total       Total     Peak  Runoff
                           Precip      Runon       Evap      Infil     Runoff      Runoff   Runoff   Coeff
  Subcatchment                 mm         mm         mm         mm         mm    10^6 ltr      MLD
  --------------------------------------------------------------------------------------------------------
  1                          9.79       7.53       0.00       7.14       5.97        0.07     1.32   0.345
  2                          9.79       0.00       0.00       5.99       2.55        0.09     1.60   0.261
  3                          9.79       0.00       0.00       6.00       2.46        0.13     2.31   0.252
  4                          9.79       0.00       0.00       5.99       2.60        0.07     1.29   0.266
  5                          9.79       6.37       0.00       7.08       5.30        0.09     1.65   0.328
  6                          9.79       0.00       0.00       6.00       2.47        0.12     2.25   0.252
  7                          9.79       0.00       0.00       4.21       2.15        3.45    56.52   0.220
  8                          9.79       0.00       0.00       6.00       2.50        0.11     1.96   0.256
  9                          9.79       2.46       0.00       6.47       3.35        0.13     2.32   0.273
  17                         9.79       0.00       0.00       6.00       2.53        0.09     1.72   0.259
  18                         9.79       0.00       0.00       6.00       2.50        0.11     2.00   0.255
  28                         9.79       7.02       0.00       7.14       5.19        0.14     2.45   0.308
  29                         9.79       2.88       0.00       6.46       3.59        0.09     1.59   0.283
  30                         9.79       9.69       0.00       7.48       7.49        0.07     1.28   0.384
  31                         9.79       0.00       0.00       5.99       2.54        0.09     1.67   0.260
  33                         9.79       0.00       0.00       5.95       2.85        0.02     0.48   0.291
  34                         9.79       5.39       0.00       6.95       4.77        0.10     1.81   0.314
  35                         9.79       0.00       0.00       5.99       2.57        0.08     1.45   0.263
  36                         9.79       4.76       0.00       6.88       3.95        0.23     4.19   0.272
  39                         9.79       0.00       0.00       5.99       2.55        0.09     1.62   0.260
  40                         9.79       1.32       0.00       6.26       2.95        0.12     2.13   0.266
  41                         9.79       0.00       0.00       5.98       2.67        0.05     0.98   0.273
  42                         9.79       0.00       0.00       5.98       2.63        0.06     1.13   0.269
  43                         9.79       0.00       0.00       5.90       3.08        0.01     0.23   0.315
  44                         9.79      65.86       0.00      11.16      50.16        0.19     3.24   0.663
  45                         9.79       0.00       0.00       5.96       2.81        0.03     0.56   0.287
  46                         9.79       3.91       0.00       6.70       4.12        0.09     1.63   0.300
  47                         9.79       0.00       0.00       5.96       2.80        0.03     0.60   0.285
  48                         9.79       1.96       0.00       6.35       3.47        0.05     1.04   0.295
  55                         9.79       2.89       0.00       6.48       4.14        0.03     0.66   0.326
  56                         9.79       4.32       0.00       6.76       4.27        0.09     1.68   0.302
  57                         9.79       0.00       0.00       6.00       2.47        0.12     2.27   0.252
  59                         9.79       0.00       0.00       5.95       2.86        0.02     0.47   0.292
  60                         9.79       6.40       0.00       6.97       6.25        0.03     0.63   0.386
  61                         9.79       0.00       0.00       6.02       2.18        0.39     7.08   0.222
  62                         9.79       0.00       0.00       6.02       2.16        0.41     7.43   0.221
  64                         9.79       0.00       0.00       5.96       2.78        0.03     0.64   0.284
  
  
  ****************************
  Subcatchment Washoff Summary
  ****************************
  
  ------------------------------------------------------------------------------------------
                                 COD         NH3-N            TN            TP            SS
  Subcatchment                    kg            kg            kg            kg            kg
  ------------------------------------------------------------------------------------------
  1                            4.519         0.000         0.000         0.000         0.000
  2                            0.000         0.000         0.000         0.000         0.000
  3                            0.000         0.000         0.000         0.000         0.000
  4                            5.414         0.000         0.000         0.000         0.000
  5                           15.282         0.000         0.000         0.000         0.000
  6                            9.097         0.000         0.000         0.000         0.000
  7                          237.085         0.000         0.000         0.000         0.000
  8                            8.007         0.000         0.000         0.000         0.000
  9                           14.080         0.000         0.000         0.000         0.000
  17                           7.095         0.000         0.000         0.000         0.000
  18                           8.165         0.000         0.000         0.000         0.000
  28                          26.578         0.000         0.000         0.000         0.000
  29                          12.484         0.000         0.000         0.000         0.000
  30                          15.238         0.000         0.000         0.000         0.000
  31                           6.900         0.000         0.000         0.000         0.000
  33                           2.118         0.000         0.000         0.000         0.000
  34                          15.433         0.000         0.000         0.000         0.000
  35                           6.041         0.000         0.000         0.000         0.000
  36                          33.534         0.000         0.000         0.000         0.000
  39                           6.671         0.000         0.000         0.000         0.000
  40                          11.091         0.000         0.000         0.000         0.000
  41                           4.151         0.000         0.000         0.000         0.000
  42                           4.755         0.000         0.000         0.000         0.000
  43                           1.023         0.000         0.000         0.000         0.000
  44                          41.098         0.000         0.000         0.000         0.000
  45                           2.439         0.000         0.000         0.000         0.000
  46                          12.515         0.000         0.000         0.000         0.000
  47                           2.597         0.000         0.000         0.000         0.000
  48                           6.191         0.000         0.000         0.000         0.000
  55                           4.605         0.000         0.000         0.000         0.000
  56                          13.826         0.000         0.000         0.000         0.000
  57                           9.189         0.000         0.000         0.000         0.000
  59                           2.057         0.000         0.000         0.000         0.000
  60                           6.260         0.000         0.000         0.000         0.000
  61                          25.997         0.000         0.000         0.000         0.000
  62                          27.118         0.000         0.000         0.000         0.000
  64                           2.772         0.000         0.000         0.000         0.000
  ------------------------------------------------------------------------------------------
  System                     611.426         0.000         0.000         0.000         0.000
  
  
  ******************
  Node Depth Summary
  ******************
  
  ---------------------------------------------------------------------------------
                                 Average  Maximum  Maximum  Time of Max    Reported
                                   Depth    Depth      HGL   Occurrence   Max Depth
  Node                 Type       Meters   Meters   Meters  days hr:min      Meters
  ---------------------------------------------------------------------------------
  WS01000070           JUNCTION     0.00     0.00     0.00     0  00:00        0.00
  WS01000323           JUNCTION     0.00     0.00     0.00     0  00:00        0.00
  WS01000533           JUNCTION     0.00     0.00     6.86     0  00:00        0.00
  WS01005172           JUNCTION     0.00     0.00     0.00     0  00:00        0.00
  WS01005181           JUNCTION     0.00     0.00     0.00     0  00:00        0.00
  WS01009841           JUNCTION     0.00     0.00     0.00     0  00:00        0.00
  WS02000078           JUNCTION     0.00     0.00     0.00     0  00:00        0.00
  WS02000112           JUNCTION     0.00     0.00     0.00     0  00:00        0.00
  WS02000136           JUNCTION     0.00     0.00     0.00     0  00:00        0.00
  WS02001211           JUNCTION     0.41     0.44     5.28     0  03:09        0.44
  WS02001212           JUNCTION     0.34     0.38     5.18     0  03:08        0.38
  WS02001213           JUNCTION     0.43     0.48     5.18     0  03:08        0.48
  WS02003059           JUNCTION     0.38     0.46     5.11     0  03:04        0.46
  WS02003060           JUNCTION     0.42     0.55     5.10     0  03:05        0.54
  WS02003066           JUNCTION     0.14     0.26     5.56     0  03:05        0.24
  WS02003067           JUNCTION     0.24     0.42     5.74     0  03:03        0.42
  WS02003071           JUNCTION     0.47     0.60     5.00     0  03:05        0.60
  WS02003072           JUNCTION     0.39     0.52     4.89     0  03:07        0.52
  WS02003073           JUNCTION     0.45     0.65     4.89     0  02:53        0.65
  WS02003076           JUNCTION     0.41     0.58     4.81     0  03:05        0.57
  WS02003077           JUNCTION     0.05     0.08     5.09     0  03:10        0.08
  WS02003078           JUNCTION     0.03     0.05     6.95     0  03:10        0.05
  WS02003079           JUNCTION     0.10     0.17     7.08     0  03:04        0.17
  WS02003093           JUNCTION     0.01     0.02     7.36     0  03:02        0.02
  WS02003094           JUNCTION     0.09     0.14     7.36     0  03:01        0.14
  WS02003098           JUNCTION     0.05     0.09     7.26     0  03:02        0.09
  WS02003099           JUNCTION     0.11     0.17     7.21     0  03:03        0.17
  WS02003102           JUNCTION     0.10     0.16     7.19     0  03:01        0.16
  WS02003103           JUNCTION     0.11     0.18     7.15     0  03:02        0.18
  WS02003104           JUNCTION     0.11     0.18     7.14     0  03:03        0.18
  WS02003106           JUNCTION     0.11     0.18     7.11     0  03:03        0.18
  WS02004050           JUNCTION     0.28     0.38     4.60     0  03:07        0.37
  WS02004053           JUNCTION     0.00     0.00     0.00     0  00:00        0.00
  WS02004136           JUNCTION     0.17     0.18     6.91     0  01:26        0.18
  WS02004139           JUNCTION     0.34     0.37     5.33     0  03:08        0.37
  WS02004401           JUNCTION     0.23     0.41     6.41     0  03:01        0.40
  WS02004402           JUNCTION     0.23     0.41     6.37     0  03:01        0.41
  WS02004403           JUNCTION     0.22     0.41     6.34     0  03:01        0.41
  WS02004404           JUNCTION     0.30     0.49     6.34     0  03:02        0.49
  WS02004405           JUNCTION     0.30     0.49     6.33     0  03:02        0.49
  WS02004406           JUNCTION     0.28     0.47     6.30     0  03:02        0.47
  WS02004407           JUNCTION     0.27     0.45     6.25     0  03:02        0.45
  WS02004409           JUNCTION     0.26     0.43     6.20     0  03:02        0.43
  WS02004410           JUNCTION     0.26     0.42     6.14     0  03:03        0.42
  WS02004411           JUNCTION     0.24     0.39     6.07     0  03:03        0.39
  WS02004412           JUNCTION     0.20     0.33     5.97     0  03:04        0.33
  WS02004413           JUNCTION     0.20     0.35     5.82     0  03:04        0.35
  WS02004997           JUNCTION     5.01     6.68     8.29     0  03:00        6.68
  WS02005192           JUNCTION     0.11     0.27     8.14     0  02:47        0.27
  WS02005193           JUNCTION     0.13     0.28     8.10     0  02:48        0.27
  WS02005196           JUNCTION     0.12     0.27     8.12     0  02:47        0.26
  WS02006109           JUNCTION     0.27     0.47     7.09     0  02:58        0.47
  WS02006110           JUNCTION     0.26     0.43     7.03     0  02:58        0.43
  WS02006111           JUNCTION     0.13     0.23     6.81     0  02:59        0.23
  WS02006112           JUNCTION     0.25     0.43     6.55     0  03:00        0.43
  WS02006113           JUNCTION     0.22     0.36     6.95     0  02:59        0.36
  WS02006115           JUNCTION     0.21     0.39     6.49     0  03:00        0.39
  WS02006116           JUNCTION     0.24     0.41     6.45     0  03:00        0.41
  WS02006183           JUNCTION     0.00     0.00     0.00     0  00:00        0.00
  WS02006228           JUNCTION     0.27     0.47     7.12     0  02:58        0.47
  WS02006229           JUNCTION     0.24     0.44     7.13     0  02:57        0.44
  WS02006230           JUNCTION     0.22     0.43     7.18     0  02:57        0.42
  WS02006231           JUNCTION     0.17     0.33     7.23     0  02:53        0.33
  WS02006232           JUNCTION     0.16     0.31     7.34     0  02:53        0.31
  WS02006234           JUNCTION     0.16     0.31     7.47     0  02:52        0.31
  WS02006235           JUNCTION     0.20     0.36     7.53     0  02:52        0.36
  WS02006238           JUNCTION     0.20     0.37     7.55     0  02:52        0.37
  WS02006239           JUNCTION     0.21     0.40     7.61     0  02:52        0.40
  WS02006242           JUNCTION     0.22     0.42     7.72     0  02:55        0.42
  WS02006240           JUNCTION     0.18     0.36     7.65     0  02:53        0.36
  WS02006243           JUNCTION     0.16     0.35     7.77     0  02:50        0.35
  WS02006245           JUNCTION     0.17     0.36     7.85     0  02:50        0.35
  WS02006247           JUNCTION     0.19     0.38     7.89     0  02:49        0.38
  WS02006248           JUNCTION     0.15     0.34     7.93     0  02:49        0.34
  WS02006249           JUNCTION     0.17     0.37     7.97     0  02:49        0.37
  WS02006251           JUNCTION     0.16     0.38     8.05     0  02:48        0.37
  WS02006253           JUNCTION     0.11     0.29     8.09     0  02:48        0.29
  WS02618401           JUNCTION     0.00     0.00     0.00     0  00:00        0.00
  WS8802               JUNCTION     0.00     0.00     4.38     0  00:00        0.00
  WSA1649              JUNCTION     0.00     0.00     0.00     0  00:00        0.00
  WSF200               JUNCTION     0.14     0.23     5.33     0  03:02        0.23
  XR-Inflow            JUNCTION     4.85     6.55     8.36     0  02:46        6.55
  WS02004114           JUNCTION     4.99     6.65     8.25     0  03:00        6.65
  outfall-2            OUTFALL      0.00     0.00     7.00     0  00:00        0.00
  outfall-5            OUTFALL      0.00     0.00     7.67     0  00:00        0.00
  outfall-14           OUTFALL      0.00     0.00     7.66     0  00:00        0.00
  outfall-16           OUTFALL      0.00     0.00     8.39     0  00:00        0.00
  12                   OUTFALL      0.28     0.37     0.37     0  03:08        0.37
  XR-storage           STORAGE      6.07     7.72     8.22     0  02:09        7.72
  CC-storage           STORAGE      3.45     5.03     8.21     0  02:24        5.01
  JK-storage           STORAGE      3.82     4.80     7.80     0  01:54        4.80
  
  
  *******************
  Node Inflow Summary
  *******************
  
  -------------------------------------------------------------------------------------------------
                                  Maximum  Maximum                  Lateral       Total        Flow
                                  Lateral    Total  Time of Max      Inflow      Inflow     Balance
                                   Inflow   Inflow   Occurrence      Volume      Volume       Error
  Node                 Type           MLD      MLD  days hr:min    10^6 ltr    10^6 ltr     Percent
  -------------------------------------------------------------------------------------------------
  WS01000070           JUNCTION      0.00     0.00     0  00:00           0           0       0.000 ltr
  WS01000323           JUNCTION      0.00     0.00     0  00:00           0           0       0.000 ltr
  WS01000533           JUNCTION      0.00     0.00     0  00:00           0           0       0.000 ltr
  WS01005172           JUNCTION      0.00     0.00     0  00:00           0           0       0.000 ltr
  WS01005181           JUNCTION      0.00     0.00     0  00:00           0           0       0.000 ltr
  WS01009841           JUNCTION      0.00     0.00     0  00:00           0           0       0.000 ltr
  WS02000078           JUNCTION      0.00     0.00     0  00:00           0           0       0.000 ltr
  WS02000112           JUNCTION      0.00     0.00     0  00:00           0           0       0.000 ltr
  WS02000136           JUNCTION      0.00     0.00     0  00:00           0           0       0.000 ltr
  WS02001211           JUNCTION      0.25    33.87     0  01:47      0.0407        4.81       0.532
  WS02001212           JUNCTION      0.21    34.02     0  01:48      0.0346        4.82       0.294
  WS02001213           JUNCTION      0.30    34.33     0  03:12      0.0489        4.86       0.397
  WS02003059           JUNCTION      0.23    34.88     0  03:12      0.0378        4.88       0.464
  WS02003060           JUNCTION      0.16    76.44     0  03:05      0.0252        7.26       0.432
  WS02003066           JUNCTION      0.08    47.91     0  03:04      0.0122        2.36       0.159
  WS02003067           JUNCTION      0.26    39.14     0  03:05      0.0395        2.35       0.222
  WS02003071           JUNCTION      0.35    73.20     0  03:05      0.0538        7.28       0.458
  WS02003072           JUNCTION      0.24    73.38     0  03:07      0.0382        7.29       0.283
  WS02003073           JUNCTION      0.07    80.88     0  03:07     0.00978        7.56       0.262
  WS02003076           JUNCTION      0.72    90.31     0  03:07        0.12        7.66       0.171
  WS02003077           JUNCTION      0.04     4.74     0  03:10      0.0059       0.281       0.160
  WS02003078           JUNCTION      0.03     5.39     0  03:10     0.00419       0.275      -0.119
  WS02003079           JUNCTION      0.04     4.29     0  03:03     0.00561       0.272       0.351
  WS02003093           JUNCTION      0.02     0.02     0  01:00     0.00306     0.00306       0.742
  WS02003094           JUNCTION      2.37     2.38     0  03:01       0.136       0.139       1.090
  WS02003098           JUNCTION      0.02     2.36     0  03:01     0.00293        0.14       0.607
  WS02003099           JUNCTION      0.07     2.40     0  03:02      0.0109       0.151       1.338
  WS02003102           JUNCTION      1.98     4.29     0  03:01        0.11       0.259       0.606
  WS02003103           JUNCTION      0.02     4.26     0  03:01     0.00239        0.26       0.458
  WS02003104           JUNCTION      0.02     4.24     0  03:02     0.00302       0.261       0.382
  WS02003106           JUNCTION      0.05     4.27     0  03:03     0.00728       0.268       0.485
  WS02004050           JUNCTION      0.72    94.57     0  03:07       0.119        7.76       0.638
  WS02004053           JUNCTION      0.00     0.00     0  00:00           0           0       0.000 ltr
  WS02004136           JUNCTION      0.44    32.92     0  01:24      0.0703        4.73       0.068
  WS02004139           JUNCTION      0.38    33.57     0  01:26      0.0619        4.79       0.376
  WS02004401           JUNCTION      0.05    30.59     0  03:00     0.00897        1.68       0.241
  WS02004402           JUNCTION      0.22    30.58     0  03:00      0.0335        1.71       0.216
  WS02004403           JUNCTION      0.23    30.75     0  03:01      0.0349        1.74       0.167
  WS02004404           JUNCTION      0.24    30.62     0  03:01      0.0365        1.77       0.192
  WS02004405           JUNCTION      1.36    31.87     0  03:01      0.0807        1.85       0.277
  WS02004406           JUNCTION      2.56    34.31     0  03:01       0.158           2       0.390
  WS02004407           JUNCTION      0.11    34.27     0  03:02      0.0171        2.01       0.351
  WS02004409           JUNCTION      1.84    36.13     0  03:02       0.124        2.13       0.295
  WS02004410           JUNCTION      0.15    36.35     0  03:03      0.0226        2.14       0.306
  WS02004411           JUNCTION      0.25    36.48     0  03:03      0.0379        2.18       0.265
  WS02004412           JUNCTION      2.33    38.65     0  03:03       0.137        2.31       0.201
  WS02004413           JUNCTION      0.11    38.59     0  03:04      0.0172        2.32       0.178
  WS02004997           JUNCTION      0.42    63.57     0  03:00      0.0693        6.68       0.588
  WS02005192           JUNCTION      2.36     3.34     0  02:26       0.141       0.144       0.287
  WS02005193           JUNCTION      0.09     6.54     0  02:45      0.0146       0.205       0.366
  WS02005196           JUNCTION      0.12     4.45     0  02:46       0.019       0.174       0.430
  WS02006109           JUNCTION      0.08    27.74     0  02:58      0.0135        1.42       0.365
  WS02006110           JUNCTION      0.08    27.87     0  02:58      0.0132        1.43       0.357
  WS02006111           JUNCTION      0.24    30.41     0  02:59      0.0366        1.61       0.123
  WS02006112           JUNCTION      0.18    30.58     0  02:59      0.0273        1.63       0.261
  WS02006113           JUNCTION      2.46    30.24     0  02:59       0.152        1.57       0.242
  WS02006115           JUNCTION      0.08    30.58     0  03:00      0.0134        1.64       0.261
  WS02006116           JUNCTION      0.24    30.73     0  02:59       0.036        1.67       0.259
  WS02006183           JUNCTION      0.00     0.00     0  00:00           0           0       0.000 ltr
  WS02006228           JUNCTION      3.39    27.77     0  02:58       0.214        1.41       0.261
  WS02006229           JUNCTION      0.13    24.54     0  02:54        0.02         1.2       0.222
  WS02006230           JUNCTION      0.07    24.86     0  02:53      0.0116        1.18       0.198
  WS02006231           JUNCTION      0.13    24.62     0  02:53      0.0205        1.17       0.103
  WS02006232           JUNCTION      1.67    24.40     0  02:53      0.0995        1.15       0.125
  WS02006234           JUNCTION      0.14    22.64     0  02:56      0.0216        1.05       0.151
  WS02006235           JUNCTION      0.14    22.54     0  02:56      0.0223        1.03       0.074
  WS02006238           JUNCTION      0.15    22.43     0  02:55      0.0235        1.01       0.162
  WS02006239           JUNCTION      0.11    22.28     0  02:55      0.0174        0.99       0.215
  WS02006242           JUNCTION      0.08    22.56     0  02:50      0.0129       0.967       0.287
  WS02006240           JUNCTION      0.06    22.26     0  02:51     0.00992       0.974       0.166
  WS02006243           JUNCTION      0.17    22.95     0  02:50      0.0269       0.956       0.133
  WS02006245           JUNCTION      0.07    23.08     0  02:49      0.0113        0.93       0.123
  WS02006247           JUNCTION      1.45    22.52     0  02:49      0.0972        0.92       0.164
  WS02006248           JUNCTION      0.12    21.34     0  02:49      0.0192       0.823       0.048
  WS02006249           JUNCTION      0.19    21.82     0  02:49      0.0286       0.806       0.237
  WS02006251           JUNCTION      0.72    21.75     0  02:48      0.0441       0.778       0.107
  WS02006253           JUNCTION      0.11    20.62     0  02:48      0.0173       0.755      -0.014
  WS02618401           JUNCTION      0.00     0.00     0  00:00           0           0       0.000 ltr
  WS8802               JUNCTION      0.00     0.00     0  00:00           0           0       0.000 ltr
  WSA1649              JUNCTION      0.00     0.00     0  00:00           0           0       0.000 ltr
  WSF200               JUNCTION      0.14    43.56     0  03:02      0.0216        2.38       0.003
  XR-Inflow            JUNCTION     74.59    74.59     0  03:00        6.78        6.78       0.347
  WS02004114           JUNCTION      0.57    64.10     0  03:00      0.0916        6.73       0.365
  outfall-2            OUTFALL       0.00     0.00     0  00:00           0           0       0.000 ltr
  outfall-5            OUTFALL       0.00     0.00     0  00:00           0           0       0.000 ltr
  outfall-14           OUTFALL       0.00     0.00     0  00:00           0           0       0.000 ltr
  outfall-16           OUTFALL       0.00     0.00     0  00:00           0           0       0.000 ltr
  12                   OUTFALL       0.00    81.94     0  03:08           0        7.71       0.000
  XR-storage           STORAGE       0.00    64.10     0  03:00           0        6.71       0.694
  CC-storage           STORAGE       8.61     8.61     0  03:00       0.679       0.679       0.002
  JK-storage           STORAGE       8.32     8.32     0  03:01       0.587       0.587       0.001
  
  
  **********************
  Node Surcharge Summary
  **********************
  
  Surcharging occurs when water rises above the top of the highest conduit.
  ---------------------------------------------------------------------
                                               Max. Height   Min. Depth
                                   Hours       Above Crown    Below Rim
  Node                 Type      Surcharged         Meters       Meters
  ---------------------------------------------------------------------
  WS01000070           JUNCTION        4.00          0.000        0.000
  WS01000323           JUNCTION        4.00          0.000        0.000
  WS01000533           JUNCTION        4.00          0.000        2.147
  WS01005172           JUNCTION        4.00          0.000        0.000
  WS01005181           JUNCTION        4.00          0.000        0.000
  WS01009841           JUNCTION        4.00          0.000        0.000
  WS02000078           JUNCTION        4.00          0.000        0.000
  WS02000112           JUNCTION        4.00          0.000        0.000
  WS02000136           JUNCTION        4.00          0.000        0.000
  WS02004053           JUNCTION        4.00          0.000        0.000
  WS02004997           JUNCTION        3.88          5.784        0.216
  WS02006183           JUNCTION        4.00          0.000        0.000
  WS02618401           JUNCTION        4.00          0.000        0.000
  WS8802               JUNCTION        4.00          0.000        4.942
  WSA1649              JUNCTION        4.00          0.000        0.000
  XR-Inflow            JUNCTION        3.87          5.650        0.000
  WS02004114           JUNCTION        3.88          5.748        0.767
  
  
  *********************
  Node Flooding Summary
  *********************
  
  Flooding refers to all water that overflows a node, whether it ponds or not.
  --------------------------------------------------------------------------
                                                             Total   Maximum
                                 Maximum   Time of Max       Flood    Ponded
                        Hours       Rate    Occurrence      Volume     Depth
  Node                 Flooded       MLD   days hr:min    10^6 ltr    Meters
  --------------------------------------------------------------------------
  XR-Inflow               0.66     11.40      0  03:00       0.146     0.000
  XR-storage              1.84     31.62      0  03:00       1.937     0.000
  JK-storage              2.10      8.32      0  03:01       0.452     0.000
  
  
  **********************
  Storage Volume Summary
  **********************
  
  --------------------------------------------------------------------------------------------------
                         Average     Avg  Evap Exfil       Maximum     Max    Time of Max    Maximum
                          Volume    Pcnt  Pcnt  Pcnt        Volume    Pcnt     Occurrence    Outflow
  Storage Unit           1000 m3    Full  Loss  Loss       1000 m3    Full    days hr:min        MLD
  --------------------------------------------------------------------------------------------------
  XR-storage               0.049      79     0     0         0.063     100       0  02:09      32.48
  CC-storage               0.098      61     0     0         0.142      89       0  02:24      17.28
  JK-storage               0.108      79     0     0         0.136     100       0  01:54       0.00
  
  
  ***********************
  Outfall Loading Summary
  ***********************
  
  ---------------------------------------------------------------------------------------------------------------------------------
                         Flow       Avg       Max       Total         Total         Total         Total         Total         Total
                         Freq      Flow      Flow      Volume           COD         NH3-N            TN            TP            SS
  Outfall Node           Pcnt       MLD       MLD    10^6 ltr            kg            kg            kg            kg            kg
  ---------------------------------------------------------------------------------------------------------------------------------
  outfall-2              0.00      0.00      0.00       0.000         0.000         0.000         0.000         0.000         0.000
  outfall-5              0.00      0.00      0.00       0.000         0.000         0.000         0.000         0.000         0.000
  outfall-14             0.00      0.00      0.00       0.000         0.000         0.000         0.000         0.000         0.000
  outfall-16             0.00      0.00      0.00       0.000         0.000         0.000         0.000         0.000         0.000
  12                    99.98     50.54     81.94       7.713      1015.856         0.000         0.000         0.000         0.000
  ---------------------------------------------------------------------------------------------------------------------------------
  System                20.00     50.54     81.94       7.713      1015.856         0.000         0.000         0.000         0.000
  
  
  ********************
  Link Flow Summary
  ********************
  
  -----------------------------------------------------------------------------
                                 Maximum  Time of Max   Maximum    Max/    Max/
                                  |Flow|   Occurrence   |Veloc|    Full    Full
  Link                 Type          MLD  days hr:min     m/sec    Flow   Depth
  -----------------------------------------------------------------------------
  WSL49                CONDUIT     89.60     0  03:07      2.00    1.11    0.49
  WSL1465              CONDUIT     35.92     0  03:11      1.66    0.33    0.50
  WSL1472              CONDUIT     73.17     0  03:07      1.68    0.83    0.47
  WSL1475              CONDUIT     93.85     0  03:07      2.53    1.00    0.33
  WSL1476              CONDUIT      4.35     0  03:10      0.40    0.02    0.45
  WSL1477              CONDUIT      5.37     0  03:10      1.84    0.21    0.18
  WSL1490              CONDUIT     33.81     0  01:48      1.39    0.55    0.41
  WSL1491              CONDUIT     34.05     0  03:12      1.45    0.20    0.43
  WSL1492              CONDUIT     34.66     0  03:12      1.39    0.53    0.47
  WSL1507              CONDUIT      0.06     0  03:03      0.11    0.00    0.10
  WSL1508              CONDUIT      2.35     0  03:01      0.61    0.07    0.14
  WSL1512              CONDUIT      2.35     0  03:02      0.45    0.02    0.13
  WSL1513              CONDUIT      2.41     0  03:04      0.38    0.14    0.21
  WSL1515              CONDUIT     47.84     0  03:04      2.23    0.47    0.28
  WSL1516              CONDUIT      4.71     0  03:10      3.21    0.02    0.11
  WSL1518              CONDUIT      4.25     0  03:01      0.63    0.08    0.21
  WSL1519              CONDUIT      4.23     0  03:03      0.60    0.11    0.22
  WSL1521              CONDUIT      4.26     0  03:03      0.66    0.12    0.22
  WSL1543              CONDUIT      4.23     0  03:02      0.59    0.13    0.22
  WSL1961              CONDUIT     33.19     0  01:26      3.07    0.07    0.27
  WSL1964              CONDUIT     33.62     0  01:47      1.38    0.18    0.34
  WSL2010              CONDUIT     30.56     0  03:01      1.25    0.39    0.41
  WSL2011              CONDUIT     30.43     0  03:01      1.12    0.20    0.45
  WSL2012              CONDUIT     30.58     0  03:02      0.94    0.47    0.49
  WSL2013              CONDUIT     31.81     0  03:01      1.01    0.79    0.48
  WSL2014              CONDUIT     34.18     0  03:02      1.14    0.55    0.46
  WSL2015              CONDUIT     34.40     0  03:02      1.20    0.46    0.44
  WSL2016              CONDUIT     36.23     0  03:03      1.32    0.42    0.42
  WSL2017              CONDUIT     36.28     0  03:03      1.42    0.44    0.40
  WSL2018              CONDUIT     38.49     0  03:04      1.93    0.23    0.34
  WSL2019              CONDUIT     38.93     0  03:05      1.84    0.23    0.39
  WSL2028              CONDUIT     30.40     0  03:00      1.21    0.32    0.41
  WSL2029              CONDUIT     36.65     0  03:04      1.67    0.46    0.36
  WSL2038              CONDUIT      4.21     0  02:47      0.56    0.21    0.42
  WSL2039              CONDUIT      7.65     0  02:55      1.31    0.39    0.47
  WSL2041              CONDUIT      4.66     0  02:55      0.80    0.23    0.45
  WSL2294              CONDUIT     27.79     0  02:58      1.11    0.93    0.56
  WSL2295              CONDUIT     27.84     0  02:59      1.30    1.25    0.49
  WSL2296              CONDUIT     30.42     0  02:59      1.82    0.17    0.41
  WSL2297              CONDUIT     30.50     0  03:00      1.20    0.58    0.41
  WSL2298              CONDUIT     30.20     0  02:59      2.08    1.39    0.37
  WSL2301              CONDUIT     30.52     0  02:59      1.22    0.28    0.40
  WSL2302              CONDUIT     30.54     0  03:00      1.20    0.37    0.41
  WSL2441              CONDUIT     27.66     0  02:58      1.07    0.71    0.59
  WSL2442              CONDUIT     24.42     0  02:54      1.26    0.62    0.62
  WSL2443              CONDUIT     24.79     0  02:53      1.42    0.39    0.54
  WSL2444              CONDUIT     24.50     0  02:53      1.68    0.39    0.45
  WSL2446              CONDUIT     22.89     0  02:53      1.63    0.39    0.44
  WSL2447              CONDUIT     22.52     0  02:56      1.45    1.16    0.48
  WSL2448              CONDUIT     22.41     0  02:56      1.30    0.63    0.52
  WSL2449              CONDUIT     22.29     0  02:55      1.21    0.78    0.55
  WSL2450              CONDUIT     22.18     0  02:55      1.21    0.46    0.54
  WSL2451              CONDUIT     22.20     0  02:51      1.18    1.45    0.56
  WSL2452              CONDUIT     22.49     0  02:50      1.25    0.43    0.55
  WSL2454              CONDUIT     22.79     0  02:50      1.46    0.53    0.50
  WSL2478              CONDUIT     23.01     0  02:49      1.31    0.81    0.52
  WSL2479              CONDUIT     21.31     0  02:49      1.24    0.41    0.52
  WSL2480              CONDUIT     21.23     0  02:49      1.26    0.98    0.51
  WSL2482              CONDUIT     21.66     0  02:49      1.21    0.56    0.53
  WSL2484              CONDUIT     21.16     0  02:48      1.88    0.30    0.47
  WSL2493              CONDUIT     24.55     0  02:58      1.08    0.41    0.57
  WSL2867              CONDUIT     43.45     0  03:02      3.19    0.09    0.20
  WSL2868              CONDUIT     42.85     0  03:02      1.59    0.08    0.32
  WSL348               CONDUIT     63.16     0  03:00      1.88    0.58    1.00
  WSL175               CONDUIT     63.56     0  03:00      2.29    2.14    1.00
  WSL1467              CONDUIT     72.90     0  03:05      1.61    0.39    0.48
  WSL1473              CONDUIT     76.62     0  03:07      1.82    0.31    0.48
  XRpipe               CONDUIT     64.10     0  03:00      2.54    0.16    1.00
  8                    CONDUIT      0.00     0  00:00      0.00    0.00    0.00
  19                   CONDUIT      0.00     0  00:00      0.00    0.00    0.00
  17                   CONDUIT      0.00     0  00:00      0.00    0.00    0.00
  4                    CONDUIT      0.00     0  00:00      0.00    0.00    0.00
  2                    CONDUIT     81.94     0  03:08      3.55    0.30    0.37
  XR-Pump-1            PUMP         8.12     0  00:08              1.00
  XR-Pump-3            PUMP         8.12     0  00:09              1.00
  XR-Pump-2            PUMP         8.12     0  00:09              1.00
  XR-Pump-4            PUMP         8.12     0  01:24              1.00
  CC-Pump-1            PUMP        17.28     0  01:36              1.00
  CC-Pump-2            PUMP         0.00     0  00:00              0.00
  JK-Pump-1            PUMP         0.00     0  00:00              0.00
  JK-Pump-2            PUMP         0.00     0  00:00              0.00
  
  
  ***************************
  Flow Classification Summary
  ***************************
  
  -------------------------------------------------------------------------------------
                      Adjusted    ---------- Fraction of Time in Flow Class ---------- 
                       /Actual         Up    Down  Sub   Sup   Up    Down  Norm  Inlet 
  Conduit               Length    Dry  Dry   Dry   Crit  Crit  Crit  Crit  Ltd   Ctrl  
  -------------------------------------------------------------------------------------
  WSL49                   1.00   0.00  0.00  0.00  1.00  0.00  0.00  0.00  0.00  0.00
  WSL1465                 1.00   0.00  0.00  0.00  1.00  0.00  0.00  0.00  0.10  0.00
  WSL1472                 1.00   0.00  0.00  0.00  1.00  0.00  0.00  0.00  0.00  0.00
  WSL1475                 1.00   0.00  0.00  0.00  0.14  0.86  0.00  0.00  0.01  0.00
  WSL1476                 1.00   0.00  0.00  0.00  1.00  0.00  0.00  0.00  1.00  0.00
  WSL1477                 1.00   0.00  0.00  0.00  0.01  0.99  0.00  0.00  0.37  0.00
  WSL1490                 1.00   0.00  0.00  0.00  1.00  0.00  0.00  0.00  0.00  0.00
  WSL1491                 1.00   0.00  0.00  0.00  1.00  0.00  0.00  0.00  0.04  0.00
  WSL1492                 1.00   0.00  0.00  0.00  1.00  0.00  0.00  0.00  0.00  0.00
  WSL1507                 1.00   0.00  0.00  0.00  1.00  0.00  0.00  0.00  0.91  0.00
  WSL1508                 1.00   0.00  0.00  0.00  1.00  0.00  0.00  0.00  0.00  0.00
  WSL1512                 1.00   0.00  0.00  0.00  1.00  0.00  0.00  0.00  1.00  0.00
  WSL1513                 1.00   0.00  0.00  0.00  1.00  0.00  0.00  0.00  0.00  0.00
  WSL1515                 1.00   0.00  0.00  0.00  0.11  0.89  0.00  0.00  0.03  0.00
  WSL1516                 1.00   0.00  0.00  0.00  0.00  1.00  0.00  0.00  1.00  0.00
  WSL1518                 1.00   0.00  0.00  0.00  1.00  0.00  0.00  0.00  0.80  0.00
  WSL1519                 1.00   0.00  0.00  0.00  1.00  0.00  0.00  0.00  0.36  0.00
  WSL1521                 1.00   0.00  0.00  0.00  1.00  0.00  0.00  0.00  0.02  0.00
  WSL1543                 1.00   0.00  0.00  0.00  1.00  0.00  0.00  0.00  0.02  0.00
  WSL1961                 1.00   0.00  0.00  0.00  0.02  0.98  0.00  0.00  0.97  0.00
  WSL1964                 1.00   0.00  0.00  0.00  1.00  0.00  0.00  0.00  0.05  0.00
  WSL2010                 1.00   0.00  0.00  0.00  1.00  0.00  0.00  0.00  0.00  0.00
  WSL2011                 1.00   0.00  0.00  0.00  1.00  0.00  0.00  0.00  0.27  0.00
  WSL2012                 1.00   0.00  0.00  0.00  1.00  0.00  0.00  0.00  0.01  0.00
  WSL2013                 1.00   0.00  0.00  0.00  1.00  0.00  0.00  0.00  0.00  0.00
  WSL2014                 1.00   0.00  0.00  0.00  1.00  0.00  0.00  0.00  0.00  0.00
  WSL2015                 1.00   0.00  0.00  0.00  1.00  0.00  0.00  0.00  0.02  0.00
  WSL2016                 1.00   0.00  0.00  0.00  1.00  0.00  0.00  0.00  0.02  0.00
  WSL2017                 1.00   0.00  0.00  0.00  1.00  0.00  0.00  0.00  0.04  0.00
  WSL2018                 1.00   0.00  0.00  0.00  0.01  0.99  0.00  0.00  0.25  0.00
  WSL2019                 1.00   0.00  0.00  0.00  0.30  0.70  0.00  0.00  0.11  0.00
  WSL2028                 1.00   0.00  0.00  0.00  1.00  0.00  0.00  0.00  0.07  0.00
  WSL2029                 1.00   0.00  0.00  0.00  0.63  0.37  0.00  0.00  0.00  0.00
  WSL2038                 1.00   0.00  0.00  0.00  1.00  0.00  0.00  0.00  0.03  0.00
  WSL2039                 1.00   0.00  0.00  0.00  0.91  0.09  0.00  0.00  0.01  0.00
  WSL2041                 1.00   0.00  0.00  0.00  1.00  0.00  0.00  0.00  0.43  0.00
  WSL2294                 1.00   0.00  0.00  0.00  1.00  0.00  0.00  0.00  0.00  0.00
  WSL2295                 1.00   0.00  0.00  0.00  1.00  0.00  0.00  0.00  0.00  0.00
  WSL2296                 1.00   0.00  0.00  0.00  0.27  0.73  0.00  0.00  0.89  0.00
  WSL2297                 1.00   0.00  0.00  0.00  1.00  0.00  0.00  0.00  0.00  0.00
  WSL2298                 1.00   0.00  0.00  0.00  0.06  0.94  0.00  0.00  0.00  0.00
  WSL2301                 1.00   0.00  0.00  0.00  1.00  0.00  0.00  0.00  0.09  0.00
  WSL2302                 1.00   0.00  0.00  0.00  1.00  0.00  0.00  0.00  0.03  0.00
  WSL2441                 1.00   0.00  0.00  0.00  1.00  0.00  0.00  0.00  0.01  0.00
  WSL2442                 1.00   0.00  0.00  0.00  1.00  0.00  0.00  0.00  0.23  0.00
  WSL2443                 1.00   0.00  0.00  0.00  1.00  0.00  0.00  0.00  0.76  0.00
  WSL2444                 1.00   0.00  0.00  0.00  0.02  0.98  0.00  0.00  0.52  0.00
  WSL2446                 1.00   0.00  0.00  0.00  0.06  0.94  0.00  0.00  0.34  0.00
  WSL2447                 1.00   0.00  0.00  0.00  1.00  0.00  0.00  0.00  0.00  0.00
  WSL2448                 1.00   0.00  0.00  0.00  1.00  0.00  0.00  0.00  0.03  0.00
  WSL2449                 1.00   0.00  0.00  0.00  1.00  0.00  0.00  0.00  0.03  0.00
  WSL2450                 1.00   0.00  0.00  0.00  1.00  0.00  0.00  0.00  0.64  0.00
  WSL2451                 1.00   0.00  0.00  0.00  1.00  0.00  0.00  0.00  0.00  0.00
  WSL2452                 1.00   0.00  0.00  0.00  1.00  0.00  0.00  0.00  0.77  0.00
  WSL2454                 1.00   0.00  0.00  0.00  0.99  0.01  0.00  0.00  0.09  0.00
  WSL2478                 1.00   0.00  0.00  0.00  1.00  0.00  0.00  0.00  0.00  0.00
  WSL2479                 1.00   0.00  0.00  0.00  1.00  0.00  0.00  0.00  0.75  0.00
  WSL2480                 1.00   0.00  0.00  0.00  1.00  0.00  0.00  0.00  0.00  0.00
  WSL2482                 1.00   0.00  0.00  0.00  1.00  0.00  0.00  0.00  0.79  0.00
  WSL2484                 1.00   0.00  0.00  0.00  0.98  0.02  0.00  0.00  0.79  0.00
  WSL2493                 1.00   0.00  0.00  0.00  1.00  0.00  0.00  0.00  0.05  0.00
  WSL2867                 1.00   0.00  0.00  0.00  0.00  1.00  0.00  0.00  0.21  0.00
  WSL2868                 1.00   0.00  0.00  0.00  0.98  0.02  0.00  0.00  0.99  0.00
  WSL348                  1.00   0.00  0.00  0.00  1.00  0.00  0.00  0.00  0.01  0.00
  WSL175                  1.00   0.00  0.00  0.00  0.99  0.01  0.00  0.00  0.00  0.00
  WSL1467                 1.00   0.00  0.00  0.00  1.00  0.00  0.00  0.00  0.06  0.00
  WSL1473                 1.00   0.00  0.00  0.00  1.00  0.00  0.00  0.00  0.05  0.00
  XRpipe                  1.00   0.00  0.00  0.00  0.99  0.01  0.00  0.00  0.01  0.00
  8                       1.00   1.00  0.00  0.00  0.00  0.00  0.00  0.00  0.00  0.00
  19                      1.00   1.00  0.00  0.00  0.00  0.00  0.00  0.00  0.00  0.00
  17                      1.00   1.00  0.00  0.00  0.00  0.00  0.00  0.00  0.00  0.00
  4                       1.00   1.00  0.00  0.00  0.00  0.00  0.00  0.00  0.00  0.00
  2                       1.00   0.00  0.00  0.00  0.00  1.00  0.00  0.00  0.21  0.00
  
  
  *************************
  Conduit Surcharge Summary
  *************************
  
  ----------------------------------------------------------------------------
                                                           Hours        Hours 
                         --------- Hours Full --------   Above Full   Capacity
  Conduit                Both Ends  Upstream  Dnstream   Normal Flow   Limited
  ----------------------------------------------------------------------------
  WSL49                       0.01      0.01      0.01      0.03         0.01
  WSL1475                     0.01      0.01      0.01      0.01         0.01
  WSL2295                     0.01      0.01      0.01      0.34         0.01
  WSL2298                     0.01      0.01      0.01      0.47         0.01
  WSL2447                     0.01      0.01      0.01      0.39         0.01
  WSL2451                     0.01      0.01      0.01      0.62         0.01
  WSL348                      3.87      3.87      3.88      0.01         0.01
  WSL175                      3.88      3.88      3.88      2.33         2.43
  XRpipe                      3.88      3.88      3.96      0.01         0.01
  
  
  ***************
  Pumping Summary
  ***************
  
  ---------------------------------------------------------------------------------------------------------
                                                  Min       Avg       Max     Total     Power    % Time Off
                        Percent   Number of      Flow      Flow      Flow    Volume     Usage    Pump Curve
  Pump                 Utilized   Start-Ups       MLD       MLD       MLD  10^6 ltr     Kw-hr    Low   High
  ---------------------------------------------------------------------------------------------------------
  XR-Pump-1               96.32           1      0.00      8.12      8.12     1.303      6.83    0.0    0.0
  XR-Pump-3               91.28          18      0.00      8.12      8.12     1.235      6.32    0.0    0.0
  XR-Pump-2               96.18           1      0.00      8.12      8.12     1.301      6.82    0.0    0.0
  XR-Pump-4               60.77          16      0.00      8.12      8.12     0.822      3.25    0.0    0.0
  CC-Pump-1               18.92           6      0.00     17.28     17.28     0.545      1.39    0.0    0.0
  CC-Pump-2                0.00           0      0.00      0.00      0.00     0.000      0.00    0.0    0.0
  JK-Pump-1                0.00           0      0.00      0.00      0.00     0.000      0.00    0.0    0.0
  JK-Pump-2                0.00           0      0.00      0.00      0.00     0.000      0.00    0.0    0.0
  
  
  ***************************
  Link Pollutant Load Summary
  ***************************
  
  ------------------------------------------------------------------------------------------
                                 COD         NH3-N            TN            TP            SS
  Link                            kg            kg            kg            kg            kg
  ------------------------------------------------------------------------------------------
  WSL49                      980.832         0.000         0.000         0.000         0.000
  WSL1465                    623.446         0.000         0.000         0.000         0.000
  WSL1472                    946.062         0.000         0.000         0.000         0.000
  WSL1475                    999.501         0.000         0.000         0.000         0.000
  WSL1476                     31.508         0.000         0.000         0.000         0.000
  WSL1477                     29.556         0.000         0.000         0.000         0.000
  WSL1490                    608.762         0.000         0.000         0.000         0.000
  WSL1491                    612.781         0.000         0.000         0.000         0.000
  WSL1492                    619.600         0.000         0.000         0.000         0.000
  WSL1507                      0.507         0.000         0.000         0.000         0.000
  WSL1508                     16.078         0.000         0.000         0.000         0.000
  WSL1512                     16.521         0.000         0.000         0.000         0.000
  WSL1513                     18.173         0.000         0.000         0.000         0.000
  WSL1515                    310.882         0.000         0.000         0.000         0.000
  WSL1516                     30.198         0.000         0.000         0.000         0.000
  WSL1518                     26.768         0.000         0.000         0.000         0.000
  WSL1519                     27.510         0.000         0.000         0.000         0.000
  WSL1521                     28.612         0.000         0.000         0.000         0.000
  WSL1543                     27.067         0.000         0.000         0.000         0.000
  WSL1961                    595.694         0.000         0.000         0.000         0.000
  WSL1964                    604.634         0.000         0.000         0.000         0.000
  WSL2010                    213.439         0.000         0.000         0.000         0.000
  WSL2011                    218.923         0.000         0.000         0.000         0.000
  WSL2012                    224.592         0.000         0.000         0.000         0.000
  WSL2013                    231.444         0.000         0.000         0.000         0.000
  WSL2014                    260.652         0.000         0.000         0.000         0.000
  WSL2015                    262.590         0.000         0.000         0.000         0.000
  WSL2016                    282.881         0.000         0.000         0.000         0.000
  WSL2017                    285.843         0.000         0.000         0.000         0.000
  WSL2018                    302.478         0.000         0.000         0.000         0.000
  WSL2019                    304.897         0.000         0.000         0.000         0.000
  WSL2028                    208.283         0.000         0.000         0.000         0.000
  WSL2029                    291.468         0.000         0.000         0.000         0.000
  WSL2038                     13.036         0.000         0.000         0.000         0.000
  WSL2039                     23.048         0.000         0.000         0.000         0.000
  WSL2041                     18.105         0.000         0.000         0.000         0.000
  WSL2294                    184.740         0.000         0.000         0.000         0.000
  WSL2295                    186.219         0.000         0.000         0.000         0.000
  WSL2296                    196.015         0.000         0.000         0.000         0.000
  WSL2297                    200.109         0.000         0.000         0.000         0.000
  WSL2298                    190.109         0.000         0.000         0.000         0.000
  WSL2301                    201.793         0.000         0.000         0.000         0.000
  WSL2302                    207.305         0.000         0.000         0.000         0.000
  WSL2441                    183.194         0.000         0.000         0.000         0.000
  WSL2442                    134.877         0.000         0.000         0.000         0.000
  WSL2443                    133.197         0.000         0.000         0.000         0.000
  WSL2444                    129.871         0.000         0.000         0.000         0.000
  WSL2446                    127.764         0.000         0.000         0.000         0.000
  WSL2447                    124.369         0.000         0.000         0.000         0.000
  WSL2448                    120.751         0.000         0.000         0.000         0.000
  WSL2449                    117.061         0.000         0.000         0.000         0.000
  WSL2450                    114.421         0.000         0.000         0.000         0.000
  WSL2451                    112.955         0.000         0.000         0.000         0.000
  WSL2452                    111.155         0.000         0.000         0.000         0.000
  WSL2454                    106.777         0.000         0.000         0.000         0.000
  WSL2478                    104.995         0.000         0.000         0.000         0.000
  WSL2479                     96.479         0.000         0.000         0.000         0.000
  WSL2480                     93.295         0.000         0.000         0.000         0.000
  WSL2482                     88.777         0.000         0.000         0.000         0.000
  WSL2484                     82.522         0.000         0.000         0.000         0.000
  WSL2493                    137.893         0.000         0.000         0.000         0.000
  WSL2867                    312.421         0.000         0.000         0.000         0.000
  WSL2868                    316.338         0.000         0.000         0.000         0.000
  WSL348                     778.384         0.000         0.000         0.000         0.000
  WSL175                     785.689         0.000         0.000         0.000         0.000
  WSL1467                    940.800         0.000         0.000         0.000         0.000
  WSL1473                    950.048         0.000         0.000         0.000         0.000
  XRpipe                     799.047         0.000         0.000         0.000         0.000
  8                            0.000         0.000         0.000         0.000         0.000
  19                           0.000         0.000         0.000         0.000         0.000
  17                           0.000         0.000         0.000         0.000         0.000
  4                            0.000         0.000         0.000         0.000         0.000
  2                         1015.856         0.000         0.000         0.000         0.000
  XR-Pump-1                  168.574         0.000         0.000         0.000         0.000
  XR-Pump-3                  157.196         0.000         0.000         0.000         0.000
  XR-Pump-2                  168.260         0.000         0.000         0.000         0.000
  XR-Pump-4                   89.686         0.000         0.000         0.000         0.000
  CC-Pump-1                   61.332         0.000         0.000         0.000         0.000
  CC-Pump-2                    0.000         0.000         0.000         0.000         0.000
  JK-Pump-1                    0.000         0.000         0.000         0.000         0.000
  JK-Pump-2                    0.000         0.000         0.000         0.000         0.000
  

  Analysis begun on:  Tue Mar 19 20:21:29 2019
  Analysis ended on:  Tue Mar 19 20:21:29 2019
  Total elapsed time: < 1 sec