
  EPA STORM WATER MANAGEMENT MODEL - VERSION 5.1 (Build 5.2.0.dev5)
  --------------------------------------------------------------

  
  *********************************************************
  NOTE: The summary statistics displayed in this report are
  based on results found at every computational time step,  
  not just on results from each reporting time step.
  *********************************************************
  
  ****************
  Analysis Options
  ****************
  Flow Units ............... MLD
  Process Models:
    Rainfall/Runoff ........ YES
    RDII ................... NO
    Snowmelt ............... NO
    Groundwater ............ NO
    Flow Routing ........... YES
    Ponding Allowed ........ NO
    Water Quality .......... YES
  Infiltration Method ...... GREEN_AMPT
  Flow Routing Method ...... DYNWAVE
  Surcharge Method ......... EXTRAN
  Starting Date ............ 08/28/2015 08:00:00
  Ending Date .............. 08/28/2015 11:50:00
  Antecedent Dry Days ...... 4.0
  Report Time Step ......... 00:01:00
  Wet Time Step ............ 00:01:00
  Dry Time Step ............ 00:01:00
  Routing Time Step ........ 5.00 sec
  Variable Time Step ....... YES
  Maximum Trials ........... 8
  Number of Threads ........ 1
  Head Tolerance ........... 0.001500 m
  
  
  **************************        Volume         Depth
  Runoff Quantity Continuity     hectare-m            mm
  **************************     ---------       -------
  Total Precipitation ......         0.750        12.124
  Evaporation Loss .........         0.000         0.000
  Infiltration Loss ........         0.404         6.537
  Surface Runoff ...........         0.134         2.160
  Final Storage ............         0.212         3.428
  Continuity Error (%) .....        -0.009
  
  
  **************************           COD         NH3-N            TN            TP            SS
  Runoff Quality Continuity             kg            kg            kg            kg            kg
  **************************    ----------    ----------    ----------    ----------    ----------
  Initial Buildup ..........      2504.640         0.000         0.000         0.000         0.000
  Surface Buildup ..........        20.042         0.000         0.000         0.000         0.000
  Wet Deposition ...........         0.000         0.000         0.000         0.000         0.000
  Sweeping Removal .........         0.000         0.000         0.000         0.000         0.000
  Infiltration Loss ........        41.147         0.000         0.000         0.000         0.000
  BMP Removal ..............         0.000         0.000         0.000         0.000         0.000
  Surface Runoff ...........       137.812         0.000         0.000         0.000         0.000
  Remaining Buildup ........      2345.197         0.000         0.000         0.000         0.000
  Continuity Error (%) .....         0.021         0.000         0.000         0.000         0.000
  
  
  **************************        Volume        Volume
  Flow Routing Continuity        hectare-m      10^6 ltr
  **************************     ---------     ---------
  Dry Weather Inflow .......         0.000         0.000
  Wet Weather Inflow .......         0.133         1.333
  Groundwater Inflow .......         0.000         0.000
  RDII Inflow ..............         0.000         0.000
  External Inflow ..........         0.082         0.822
  External Outflow .........         0.173         1.731
  Flooding Loss ............         0.004         0.039
  Evaporation Loss .........         0.000         0.000
  Exfiltration Loss ........         0.000         0.000
  Initial Stored Volume ....         0.000         0.000
  Final Stored Volume ......         0.046         0.462
  Continuity Error (%) .....        -3.611
  
  
  **************************           COD         NH3-N            TN            TP            SS
  Quality Routing Continuity            kg            kg            kg            kg            kg
  **************************    ----------    ----------    ----------    ----------    ----------
  Dry Weather Inflow .......         0.000         0.000         0.000         0.000         0.000
  Wet Weather Inflow .......       137.531         0.000         0.000         0.000         0.000
  Groundwater Inflow .......         0.000         0.000         0.000         0.000         0.000
  RDII Inflow ..............         0.000         0.000         0.000         0.000         0.000
  External Inflow ..........       137.264         0.000         0.000         0.000         0.000
  External Outflow .........       197.054         0.000         0.000         0.000         0.000
  Flooding Loss ............         4.233         0.000         0.000         0.000         0.000
  Exfiltration Loss ........         0.000         0.000         0.000         0.000         0.000
  Mass Reacted .............         0.000         0.000         0.000         0.000         0.000
  Initial Stored Mass ......         0.000         0.000         0.000         0.000         0.000
  Final Stored Mass ........        56.147         0.000         0.000         0.000         0.000
  Continuity Error (%) .....         6.317         0.000         0.000         0.000         0.000
  
  
  *************************
  Highest Continuity Errors
  *************************
  Node WS02006230 (6.69%)
  Node WS02006115 (4.94%)
  Node WS02006116 (4.46%)
  Node WS02006112 (4.20%)
  Node WS02006229 (4.19%)
  
  
  ***************************
  Time-Step Critical Elements
  ***************************
  Link 8 (77.49%)
  Link 17 (11.92%)
  Link WSL2448 (9.03%)
  
  
  ********************************
  Highest Flow Instability Indexes
  ********************************
  Link WSL2301 (3)
  Link WSL2302 (3)
  Link WSL2297 (2)
  Link WSL2296 (2)
  Link WSL2298 (2)
  
  
  *************************
  Routing Time Step Summary
  *************************
  Minimum Time Step           :     0.48 sec
  Average Time Step           :     1.06 sec
  Maximum Time Step           :     5.00 sec
  Percent in Steady State     :    -0.00
  Average Iterations per Step :     2.18
  Percent Not Converging      :     2.35
  
  
  ***************************
  Subcatchment Runoff Summary
  ***************************
  
  ------------------------------------------------------------------------------------------------------------------------------
                            Total      Total      Total      Total     Imperv       Perv      Total       Total     Peak  Runoff
                           Precip      Runon       Evap      Infil     Runoff     Runoff     Runoff      Runoff   Runoff   Coeff
  Subcatchment                 mm         mm         mm         mm         mm         mm         mm    10^6 ltr      MLD
  ------------------------------------------------------------------------------------------------------------------------------
  1                         12.12      10.21       0.00       7.52       5.25       3.03       8.28        0.10     2.03   0.371
  2                         12.12       0.00       0.00       6.28       2.82       0.52       3.35        0.11     2.37   0.276
  3                         12.12       0.00       0.00       6.29       2.77       0.44       3.21        0.16     3.39   0.264
  35                        12.12       0.00       0.00       6.27       2.84       0.55       3.38        0.10     2.16   0.279
  36                        12.12       6.33       0.00       7.25       4.15       1.11       5.26        0.31     6.21   0.285
  40                        12.12       1.75       0.00       6.57       3.20       0.70       3.90        0.15     3.16   0.281
  41                        12.12       0.00       0.00       6.25       2.88       0.67       3.54        0.07     1.47   0.292
  42                        12.12       0.00       0.00       6.26       2.86       0.62       3.49        0.08     1.69   0.287
  43                        12.12       0.00       0.00       6.14       2.97       1.29       4.26        0.02     0.35   0.352
  44                        12.12      87.59       0.00      11.77      24.21      43.70      67.90        0.25     4.86   0.681
  45                        12.12       0.00       0.00       6.22       2.93       0.87       3.79        0.04     0.86   0.313
  46                        12.12       5.28       0.00       7.05       4.08       1.51       5.59        0.12     2.48   0.321
  47                        12.12       0.00       0.00       6.22       2.92       0.84       3.76        0.04     0.91   0.310
  48                        12.12       2.64       0.00       6.66       3.51       1.19       4.70        0.07     1.58   0.318
  55                        12.12       3.92       0.00       6.79       3.86       1.85       5.71        0.05     1.03   0.356
  56                        12.12       5.81       0.00       7.11       4.19       1.60       5.80        0.12     2.56   0.323
  57                        12.12       0.00       0.00       6.29       2.77       0.44       3.21        0.16     3.33   0.265
  59                        12.12       0.00       0.00       6.21       2.94       0.94       3.88        0.03     0.72   0.320
  60                        12.12       8.59       0.00       7.30       5.01       3.70       8.71        0.05     0.97   0.421
  61                        12.12       0.00       0.00       6.32       2.54       0.24       2.78        0.50    10.11   0.229
  64                        12.12       0.00       0.00       6.23       2.92       0.81       3.73        0.04     0.98   0.308
  
  
  ****************************
  Subcatchment Washoff Summary
  ****************************
  
  ------------------------------------------------------------------------------------------
                                 COD         NH3-N            TN            TP            SS
  Subcatchment                    kg            kg            kg            kg            kg
  ------------------------------------------------------------------------------------------
  1                            8.643         0.000         0.000         0.000         0.000
  2                            0.000         0.000         0.000         0.000         0.000
  3                            0.000         0.000         0.000         0.000         0.000
  35                          10.637         0.000         0.000         0.000         0.000
  36                          60.290         0.000         0.000         0.000         0.000
  40                          19.720         0.000         0.000         0.000         0.000
  41                           7.418         0.000         0.000         0.000         0.000
  42                           8.450         0.000         0.000         0.000         0.000
  43                           1.961         0.000         0.000         0.000         0.000
  44                          60.210         0.000         0.000         0.000         0.000
  45                           4.467         0.000         0.000         0.000         0.000
  46                          23.292         0.000         0.000         0.000         0.000
  47                           4.741         0.000         0.000         0.000         0.000
  48                          11.465         0.000         0.000         0.000         0.000
  55                           8.785         0.000         0.000         0.000         0.000
  56                          25.726         0.000         0.000         0.000         0.000
  57                          15.962         0.000         0.000         0.000         0.000
  59                           3.800         0.000         0.000         0.000         0.000
  60                          11.617         0.000         0.000         0.000         0.000
  61                          44.212         0.000         0.000         0.000         0.000
  64                           5.045         0.000         0.000         0.000         0.000
  ------------------------------------------------------------------------------------------
  System                     336.441         0.000         0.000         0.000         0.000
  
  
  ******************
  Node Depth Summary
  ******************
  
  ---------------------------------------------------------------------------------
                                 Average  Maximum  Maximum  Time of Max    Reported
                                   Depth    Depth      HGL   Occurrence   Max Depth
  Node                 Type       Meters   Meters   Meters  days hr:min      Meters
  ---------------------------------------------------------------------------------
  WS01000070           JUNCTION     0.00     0.00     0.00     0  00:00        0.00
  WS01000323           JUNCTION     0.00     0.00     0.00     0  00:00        0.00
  WS01000533           JUNCTION     0.00     0.00     6.86     0  00:00        0.00
  WS01005172           JUNCTION     0.00     0.00     0.00     0  00:00        0.00
  WS01005181           JUNCTION     0.00     0.00     0.00     0  00:00        0.00
  WS01009841           JUNCTION     0.00     0.00     0.00     0  00:00        0.00
  WS02000078           JUNCTION     0.00     0.00     0.00     0  00:00        0.00
  WS02000112           JUNCTION     0.00     0.00     0.00     0  00:00        0.00
  WS02000136           JUNCTION     0.00     0.00     0.00     0  00:00        0.00
  WS02004053           JUNCTION     0.00     0.00     0.00     0  00:00        0.00
  WS02004401           JUNCTION     2.13     2.33     8.33     0  02:45        2.33
  WS02005192           JUNCTION     0.41     1.27     9.14     0  01:47        0.66
  WS02005193           JUNCTION     0.46     0.71     8.53     0  02:40        0.71
  WS02005196           JUNCTION     0.43     0.68     8.53     0  02:39        0.68
  WS02006109           JUNCTION     1.53     1.79     8.41     0  01:42        1.73
  WS02006110           JUNCTION     1.55     1.83     8.43     0  01:42        1.74
  WS02006111           JUNCTION     1.56     1.84     8.42     0  01:42        1.75
  WS02006112           JUNCTION     2.01     2.28     8.40     0  01:42        2.21
  WS02006113           JUNCTION     1.56     1.84     8.43     0  01:42        1.75
  WS02006115           JUNCTION     2.03     2.25     8.35     0  01:42        2.23
  WS02006116           JUNCTION     2.09     2.29     8.33     0  02:45        2.29
  WS02006183           JUNCTION     0.00     0.00     0.00     0  00:00        0.00
  WS02006228           JUNCTION     1.50     1.72     8.37     0  01:42        1.70
  WS02006229           JUNCTION     1.47     1.68     8.37     0  01:43        1.66
  WS02006230           JUNCTION     1.41     1.62     8.37     0  01:43        1.62
  WS02006231           JUNCTION     1.27     1.48     8.38     0  01:43        1.46
  WS02006232           JUNCTION     1.15     1.37     8.40     0  01:43        1.33
  WS02006234           JUNCTION     1.03     1.26     8.42     0  01:43        1.20
  WS02006235           JUNCTION     1.02     1.26     8.43     0  01:43        1.20
  WS02006238           JUNCTION     1.01     1.25     8.43     0  01:43        1.19
  WS02006239           JUNCTION     0.99     1.21     8.42     0  01:43        1.16
  WS02006242           JUNCTION     0.91     1.55     8.85     0  01:41        1.07
  WS02006240           JUNCTION     0.91     1.51     8.80     0  01:41        1.08
  WS02006243           JUNCTION     0.80     1.31     8.73     0  01:44        0.95
  WS02006245           JUNCTION     0.73     1.27     8.76     0  01:43        0.89
  WS02006247           JUNCTION     0.72     1.01     8.52     0  01:42        0.87
  WS02006248           JUNCTION     0.64     0.79     8.38     0  02:40        0.79
  WS02006249           JUNCTION     0.64     1.09     8.69     0  01:46        0.81
  WS02006251           JUNCTION     0.59     1.22     8.89     0  01:46        0.82
  WS02006253           JUNCTION     0.48     0.73     8.53     0  02:40        0.73
  WS02618401           JUNCTION     0.00     0.00     0.00     0  00:00        0.00
  WSA1649              JUNCTION     0.00     0.00     0.00     0  00:00        0.00
  outfall-5            OUTFALL      0.10     0.19     7.86     0  02:40        0.19
  outfall-14           OUTFALL      0.08     0.13     7.79     0  02:45        0.12
  outfall-16           OUTFALL      0.00     0.00     8.39     0  00:00        0.00
  CC-storage           STORAGE      2.52     5.63     8.81     0  02:27        5.63
  
  
  *******************
  Node Inflow Summary
  *******************
  
  -------------------------------------------------------------------------------------------------
                                  Maximum  Maximum                  Lateral       Total        Flow
                                  Lateral    Total  Time of Max      Inflow      Inflow     Balance
                                   Inflow   Inflow   Occurrence      Volume      Volume       Error
  Node                 Type           MLD      MLD  days hr:min    10^6 ltr    10^6 ltr     Percent
  -------------------------------------------------------------------------------------------------
  WS01000070           JUNCTION      0.00     0.00     0  00:00           0           0       0.000 ltr
  WS01000323           JUNCTION      0.00     0.00     0  00:00           0           0       0.000 ltr
  WS01000533           JUNCTION      0.00     0.00     0  00:00           0           0       0.000 ltr
  WS01005172           JUNCTION      0.00     0.00     0  00:00           0           0       0.000 ltr
  WS01005181           JUNCTION      0.00     0.00     0  00:00           0           0       0.000 ltr
  WS01009841           JUNCTION      0.00     0.00     0  00:00           0           0       0.000 ltr
  WS02000078           JUNCTION      0.00     0.00     0  00:00           0           0       0.000 ltr
  WS02000112           JUNCTION      0.00     0.00     0  00:00           0           0       0.000 ltr
  WS02000136           JUNCTION      0.00     0.00     0  00:00           0           0       0.000 ltr
  WS02004053           JUNCTION      0.00     0.00     0  00:00           0           0       0.000 ltr
  WS02004401           JUNCTION      0.05    16.42     0  02:45      0.0086       0.721       4.087
  WS02005192           JUNCTION      3.42    10.05     0  01:47       0.177       0.186       1.488
  WS02005193           JUNCTION      0.09    13.56     0  01:44       0.014       0.231       3.193
  WS02005196           JUNCTION      0.12    12.62     0  01:45      0.0183       0.213       2.951
  WS02006109           JUNCTION      0.08    12.94     0  02:45      0.0129       0.592       4.228
  WS02006110           JUNCTION      0.08    13.02     0  02:45      0.0126       0.582       4.367
  WS02006111           JUNCTION      0.24    15.92     0  02:45      0.0352       0.759       2.754
  WS02006112           JUNCTION      0.18    16.08     0  02:45      0.0263       0.766       4.388
  WS02006113           JUNCTION      3.53    15.71     0  02:45       0.189       0.746       3.250
  WS02006115           JUNCTION      0.08    16.16     0  02:45      0.0129       0.751       5.193
  WS02006116           JUNCTION      0.24    16.37     0  02:45      0.0347       0.753       4.666
  WS02006183           JUNCTION      0.00     0.00     0  00:00           0           0       0.000 ltr
  WS02006228           JUNCTION      5.01    12.86     0  02:45       0.278       0.613       2.972
  WS02006229           JUNCTION      0.13    11.35     0  01:39      0.0193       0.371       4.378
  WS02006230           JUNCTION      0.07    13.28     0  01:42      0.0111       0.382       7.165
  WS02006231           JUNCTION      0.13    16.25     0  01:39      0.0197       0.393       3.922
  WS02006232           JUNCTION      2.44    20.79     0  01:40       0.126       0.453       3.436
  WS02006234           JUNCTION      0.14    23.20     0  01:40      0.0208       0.408       3.492
  WS02006235           JUNCTION      0.14    23.92     0  01:40      0.0215       0.408       1.905
  WS02006238           JUNCTION      0.15    26.06     0  01:40      0.0226        0.41       2.530
  WS02006239           JUNCTION      0.11    30.14     0  01:41      0.0167       0.415       3.696
  WS02006242           JUNCTION      0.08    35.94     0  01:41      0.0124       0.439       4.077
  WS02006240           JUNCTION      0.06    31.86     0  01:41     0.00952       0.424       3.969
  WS02006243           JUNCTION      0.17    34.40     0  01:41      0.0259       0.457       3.802
  WS02006245           JUNCTION      0.07    34.34     0  01:41      0.0109       0.456       2.790
  WS02006247           JUNCTION      2.17    34.45     0  01:41       0.124       0.529       2.029
  WS02006248           JUNCTION      0.12    38.55     0  02:40      0.0185        1.33       0.787
  WS02006249           JUNCTION      0.19    38.43     0  02:40      0.0275        1.12       1.278
  WS02006251           JUNCTION      1.08    38.24     0  02:40      0.0567        1.11       1.313
  WS02006253           JUNCTION      0.11    37.50     0  02:40      0.0166        1.08       0.658
  WS02618401           JUNCTION      0.00     0.00     0  00:00           0           0       0.000 ltr
  WSA1649              JUNCTION      0.00     0.00     0  00:00           0           0       0.000 ltr
  outfall-5            OUTFALL       0.00    35.01     0  02:40           0        1.05       0.000
  outfall-14           OUTFALL       0.00    16.42     0  02:45           0       0.686       0.000
  outfall-16           OUTFALL       0.00     0.00     0  00:00           0           0       0.000 ltr
  CC-storage           STORAGE      11.57    11.57     0  03:01       0.776       0.776     -12.312
  
  
  **********************
  Node Surcharge Summary
  **********************
  
  Surcharging occurs when water rises above the top of the highest conduit.
  ---------------------------------------------------------------------
                                               Max. Height   Min. Depth
                                   Hours       Above Crown    Below Rim
  Node                 Type      Surcharged         Meters       Meters
  ---------------------------------------------------------------------
  WS01000070           JUNCTION        3.83          0.000        0.000
  WS01000323           JUNCTION        3.83          0.000        0.000
  WS01000533           JUNCTION        3.83          0.000        2.147
  WS01005172           JUNCTION        3.83          0.000        0.000
  WS01005181           JUNCTION        3.83          0.000        0.000
  WS01009841           JUNCTION        3.83          0.000        0.000
  WS02000078           JUNCTION        3.83          0.000        0.000
  WS02000112           JUNCTION        3.83          0.000        0.000
  WS02000136           JUNCTION        3.83          0.000        0.000
  WS02004053           JUNCTION        3.83          0.000        0.000
  WS02005192           JUNCTION        0.19          0.670        2.149
  WS02005193           JUNCTION        0.25          0.111        2.506
  WS02005196           JUNCTION        0.21          0.082        2.624
  WS02006109           JUNCTION        2.18          0.987        0.851
  WS02006110           JUNCTION        2.18          1.029        0.816
  WS02006111           JUNCTION        2.18          1.041        0.836
  WS02006112           JUNCTION        2.40          1.276        0.407
  WS02006113           JUNCTION        2.18          1.044        0.889
  WS02006115           JUNCTION        2.43          1.255        1.044
  WS02006116           JUNCTION        2.52          1.291        1.059
  WS02006183           JUNCTION        3.83          0.000        0.000
  WS02006228           JUNCTION        2.18          0.925        1.306
  WS02006229           JUNCTION        2.17          0.884        1.570
  WS02006231           JUNCTION        2.16          0.783        0.760
  WS02006232           JUNCTION        2.15          0.667        0.822
  WS02006234           JUNCTION        2.15          0.557        0.700
  WS02006235           JUNCTION        2.15          0.563        0.731
  WS02006238           JUNCTION        2.15          0.550        0.884
  WS02006239           JUNCTION        2.14          0.508        0.821
  WS02006242           JUNCTION        2.14          0.849        0.000
  WS02006240           JUNCTION        2.14          0.807        0.596
  WS02006243           JUNCTION        2.13          0.609        0.171
  WS02006245           JUNCTION        2.10          0.571        0.284
  WS02006247           JUNCTION        2.08          0.310        0.450
  WS02006249           JUNCTION        0.65          0.388        0.000
  WS02006251           JUNCTION        0.40          0.522        0.988
  WS02006253           JUNCTION        0.11          0.033        2.421
  WS02618401           JUNCTION        3.83          0.000        0.000
  WSA1649              JUNCTION        3.83          0.000        0.000
  
  
  *********************
  Node Flooding Summary
  *********************
  
  Flooding refers to all water that overflows a node, whether it ponds or not.
  --------------------------------------------------------------------------
                                                             Total   Maximum
                                 Maximum   Time of Max       Flood    Ponded
                        Hours       Rate    Occurrence      Volume     Depth
  Node                 Flooded       MLD   days hr:min    10^6 ltr    Meters
  --------------------------------------------------------------------------
  WS02006242              0.01     10.87      0  01:41       0.000     0.000
  WS02006249              0.01      5.93      0  01:46       0.000     0.000
  CC-storage              0.18      7.66      0  02:30       0.039     0.000
  
  
  **********************
  Storage Volume Summary
  **********************
  
  --------------------------------------------------------------------------------------------------
                         Average     Avg  Evap Exfil       Maximum     Max    Time of Max    Maximum
                          Volume    Pcnt  Pcnt  Pcnt        Volume    Pcnt     Occurrence    Outflow
  Storage Unit           1000 m3    Full  Loss  Loss       1000 m3    Full    days hr:min        MLD
  --------------------------------------------------------------------------------------------------
  CC-storage               0.071      45     0     0         0.159     100       0  02:27      34.56
  
  
  ***********************
  Outfall Loading Summary
  ***********************
  
  ---------------------------------------------------------------------------------------------------------------------------------
                         Flow       Avg       Max       Total         Total         Total         Total         Total         Total
                         Freq      Flow      Flow      Volume           COD         NH3-N            TN            TP            SS
  Outfall Node           Pcnt       MLD       MLD    10^6 ltr            kg            kg            kg            kg            kg
  ---------------------------------------------------------------------------------------------------------------------------------
  outfall-5             88.65     13.46     35.01       1.045       102.180         0.000         0.000         0.000         0.000
  outfall-14            89.57      8.36     16.42       0.686        94.882         0.000         0.000         0.000         0.000
  outfall-16             0.00      0.00      0.00       0.000         0.000         0.000         0.000         0.000         0.000
  ---------------------------------------------------------------------------------------------------------------------------------
  System                59.41     21.82     49.90       1.731       197.063         0.000         0.000         0.000         0.000
  
  
  ********************
  Link Flow Summary
  ********************
  
  -----------------------------------------------------------------------------
                                 Maximum  Time of Max   Maximum    Max/    Max/
                                  |Flow|   Occurrence   |Veloc|    Full    Full
  Link                 Type          MLD  days hr:min     m/sec    Flow   Depth
  -----------------------------------------------------------------------------
  WSL2038              CONDUIT      9.52     0  01:47      0.59    0.47    1.00
  WSL2039              CONDUIT     16.09     0  03:43      0.95    0.83    1.00
  WSL2041              CONDUIT     12.09     0  03:43      0.85    0.59    1.00
  WSL2294              CONDUIT     12.94     0  02:45      0.43    0.43    1.00
  WSL2295              CONDUIT     13.02     0  02:45      0.50    0.59    1.00
  WSL2296              CONDUIT     15.92     0  02:45      0.63    0.09    1.00
  WSL2297              CONDUIT     16.08     0  02:45      0.34    0.31    1.00
  WSL2298              CONDUIT     15.71     0  02:45      0.87    0.72    1.00
  WSL2301              CONDUIT     16.16     0  02:45      0.29    0.15    1.00
  WSL2302              CONDUIT     16.37     0  02:45      0.24    0.20    1.00
  WSL2441              CONDUIT     12.86     0  02:45      0.44    0.33    1.00
  WSL2442              CONDUIT     11.22     0  01:39      0.63    0.29    1.00
  WSL2443              CONDUIT     13.20     0  01:42      0.73    0.21    1.00
  WSL2444              CONDUIT     16.12     0  01:39      0.88    0.26    1.00
  WSL2446              CONDUIT     20.05     0  01:40      0.97    0.34    1.00
  WSL2447              CONDUIT     23.06     0  01:40      1.23    1.19    1.00
  WSL2448              CONDUIT     23.78     0  01:40      1.17    0.67    1.00
  WSL2449              CONDUIT     25.91     0  01:40      1.17    0.90    1.00
  WSL2450              CONDUIT     30.03     0  01:41      1.25    0.62    1.00
  WSL2451              CONDUIT     31.80     0  01:41      1.27    2.07    1.00
  WSL2452              CONDUIT     35.86     0  01:41      1.33    0.68    1.00
  WSL2454              CONDUIT     34.23     0  01:41      1.46    0.80    1.00
  WSL2478              CONDUIT     34.27     0  01:41      1.41    1.21    1.00
  WSL2479              CONDUIT     33.90     0  01:41      1.41    0.64    1.00
  WSL2480              CONDUIT     38.43     0  02:40      1.42    1.78    1.00
  WSL2482              CONDUIT     38.26     0  02:40      1.36    1.00    1.00
  WSL2484              CONDUIT     37.54     0  02:40      1.51    0.53    1.00
  WSL2493              CONDUIT      9.80     0  01:39      0.51    0.16    1.00
  8                    CONDUIT     35.01     0  02:40      6.84    0.46    0.48
  19                   CONDUIT      0.00     0  00:00      0.00    0.00    0.00
  17                   CONDUIT     16.42     0  02:45      5.64    0.21    0.31
  CC-Pump-1            PUMP        17.28     0  02:40              1.00
  CC-Pump-2            PUMP        17.28     0  02:40              1.00
  
  
  ***************************
  Flow Classification Summary
  ***************************
  
  -------------------------------------------------------------------------------------
                      Adjusted    ---------- Fraction of Time in Flow Class ---------- 
                       /Actual         Up    Down  Sub   Sup   Up    Down  Norm  Inlet 
  Conduit               Length    Dry  Dry   Dry   Crit  Crit  Crit  Crit  Ltd   Ctrl  
  -------------------------------------------------------------------------------------
  WSL2038                 1.00   0.00  0.00  0.00  1.00  0.00  0.00  0.00  0.01  0.00
  WSL2039                 1.00   0.00  0.00  0.00  1.00  0.00  0.00  0.00  0.00  0.00
  WSL2041                 1.00   0.00  0.00  0.00  1.00  0.00  0.00  0.00  0.34  0.00
  WSL2294                 1.00   0.00  0.00  0.00  1.00  0.00  0.00  0.00  0.00  0.00
  WSL2295                 1.00   0.00  0.00  0.00  1.00  0.00  0.00  0.00  0.00  0.00
  WSL2296                 1.00   0.00  0.00  0.00  1.00  0.00  0.00  0.00  0.17  0.00
  WSL2297                 1.00   0.00  0.00  0.00  1.00  0.00  0.00  0.00  0.00  0.00
  WSL2298                 1.00   0.00  0.00  0.00  0.98  0.02  0.00  0.00  0.00  0.00
  WSL2301                 1.00   0.00  0.00  0.00  1.00  0.00  0.00  0.00  0.04  0.00
  WSL2302                 1.00   0.00  0.00  0.00  1.00  0.00  0.00  0.00  0.01  0.00
  WSL2441                 1.00   0.00  0.00  0.00  1.00  0.00  0.00  0.00  0.00  0.00
  WSL2442                 1.00   0.00  0.00  0.00  1.00  0.00  0.00  0.00  0.17  0.00
  WSL2443                 1.00   0.00  0.00  0.00  1.00  0.00  0.00  0.00  0.31  0.00
  WSL2444                 1.00   0.00  0.00  0.00  0.93  0.07  0.00  0.00  0.24  0.00
  WSL2446                 1.00   0.00  0.00  0.00  0.92  0.08  0.00  0.00  0.03  0.00
  WSL2447                 1.00   0.00  0.00  0.00  1.00  0.00  0.00  0.00  0.00  0.00
  WSL2448                 1.00   0.00  0.00  0.00  1.00  0.00  0.00  0.00  0.00  0.00
  WSL2449                 1.00   0.00  0.00  0.00  1.00  0.00  0.00  0.00  0.02  0.00
  WSL2450                 1.00   0.00  0.00  0.00  1.00  0.00  0.00  0.00  0.41  0.00
  WSL2451                 1.00   0.00  0.00  0.00  1.00  0.00  0.00  0.00  0.00  0.00
  WSL2452                 1.00   0.00  0.00  0.00  1.00  0.00  0.00  0.00  0.39  0.00
  WSL2454                 1.00   0.00  0.00  0.00  1.00  0.00  0.00  0.00  0.01  0.00
  WSL2478                 1.00   0.00  0.00  0.00  1.00  0.00  0.00  0.00  0.00  0.00
  WSL2479                 1.00   0.00  0.00  0.00  1.00  0.00  0.00  0.00  0.40  0.00
  WSL2480                 1.00   0.00  0.00  0.00  1.00  0.00  0.00  0.00  0.00  0.00
  WSL2482                 1.00   0.00  0.00  0.00  1.00  0.00  0.00  0.00  0.40  0.00
  WSL2484                 1.00   0.00  0.00  0.00  1.00  0.00  0.00  0.00  0.38  0.00
  WSL2493                 1.00   0.00  0.00  0.00  1.00  0.00  0.00  0.00  0.05  0.00
  8                       1.00   0.11  0.00  0.00  0.00  0.89  0.00  0.00  0.10  0.00
  19                      1.00   1.00  0.00  0.00  0.00  0.00  0.00  0.00  0.00  0.00
  17                      1.00   0.10  0.00  0.00  0.00  0.90  0.00  0.00  0.05  0.00
  
  
  *************************
  Conduit Surcharge Summary
  *************************
  
  ----------------------------------------------------------------------------
                                                           Hours        Hours 
                         --------- Hours Full --------   Above Full   Capacity
  Conduit                Both Ends  Upstream  Dnstream   Normal Flow   Limited
  ----------------------------------------------------------------------------
  WSL2038                     0.19      0.19      0.21      0.01         0.01
  WSL2039                     0.24      0.25      0.27      0.01         0.01
  WSL2041                     0.21      0.21      0.25      0.01         0.01
  WSL2294                     2.18      2.18      2.18      0.01         0.01
  WSL2295                     2.18      2.18      2.18      0.01         0.02
  WSL2296                     2.18      2.18      2.74      0.01         0.01
  WSL2297                     2.40      2.40      2.43      0.01         0.01
  WSL2298                     2.18      2.18      2.18      0.01         0.03
  WSL2301                     2.43      2.43      2.52      0.01         0.01
  WSL2302                     2.52      2.52      2.59      0.01         0.01
  WSL2441                     2.18      2.18      2.18      0.01         0.01
  WSL2442                     2.17      2.17      2.19      0.01         0.01
  WSL2443                     2.16      2.16      2.17      0.01         0.01
  WSL2444                     2.15      2.15      2.16      0.01         0.01
  WSL2446                     2.15      2.15      2.15      0.01         0.01
  WSL2447                     2.15      2.15      2.15      0.02         0.01
  WSL2448                     2.15      2.15      2.15      0.01         0.01
  WSL2449                     2.14      2.14      2.15      0.01         0.01
  WSL2450                     2.14      2.14      2.14      0.01         0.01
  WSL2451                     2.14      2.14      2.14      0.07         0.01
  WSL2452                     2.13      2.13      2.14      0.01         0.01
  WSL2454                     2.10      2.10      2.13      0.01         0.01
  WSL2478                     2.08      2.08      2.10      0.04         0.01
  WSL2479                     0.71      0.71      2.08      0.01         0.01
  WSL2480                     0.65      0.65      0.71      0.53         0.43
  WSL2482                     0.40      0.40      0.65      0.01         0.02
  WSL2484                     0.11      0.11      0.40      0.01         0.01
  WSL2493                     2.17      2.17      2.18      0.01         0.01
  
  
  ***************
  Pumping Summary
  ***************
  
  ---------------------------------------------------------------------------------------------------------
                                                  Min       Avg       Max     Total     Power    % Time Off
                        Percent   Number of      Flow      Flow      Flow    Volume     Usage    Pump Curve
  Pump                 Utilized   Start-Ups       MLD       MLD       MLD  10^6 ltr     Kw-hr    Low   High
  ---------------------------------------------------------------------------------------------------------
  CC-Pump-1               30.42           3      0.00      9.21     17.28     0.423      3.64    0.0    0.0
  CC-Pump-2               30.42           3      0.00      9.21     17.28     0.423      3.64    0.0    0.0
  
  
  ***************************
  Link Pollutant Load Summary
  ***************************
  
  ------------------------------------------------------------------------------------------
                                 COD         NH3-N            TN            TP            SS
  Link                            kg            kg            kg            kg            kg
  ------------------------------------------------------------------------------------------
  WSL2038                     20.587         0.000         0.000         0.000         0.000
  WSL2039                     26.124         0.000         0.000         0.000         0.000
  WSL2041                     23.424         0.000         0.000         0.000         0.000
  WSL2294                    100.441         0.000         0.000         0.000         0.000
  WSL2295                     98.457         0.000         0.000         0.000         0.000
  WSL2296                    102.371         0.000         0.000         0.000         0.000
  WSL2297                    101.094         0.000         0.000         0.000         0.000
  WSL2298                     98.825         0.000         0.000         0.000         0.000
  WSL2301                     99.375         0.000         0.000         0.000         0.000
  WSL2302                    100.258         0.000         0.000         0.000         0.000
  WSL2441                    101.758         0.000         0.000         0.000         0.000
  WSL2442                     42.701         0.000         0.000         0.000         0.000
  WSL2443                     42.740         0.000         0.000         0.000         0.000
  WSL2444                     41.182         0.000         0.000         0.000         0.000
  WSL2446                     43.972         0.000         0.000         0.000         0.000
  WSL2447                     48.823         0.000         0.000         0.000         0.000
  WSL2448                     50.547         0.000         0.000         0.000         0.000
  WSL2449                     52.479         0.000         0.000         0.000         0.000
  WSL2450                     55.531         0.000         0.000         0.000         0.000
  WSL2451                     58.155         0.000         0.000         0.000         0.000
  WSL2452                     59.833         0.000         0.000         0.000         0.000
  WSL2454                     59.644         0.000         0.000         0.000         0.000
  WSL2478                     59.412         0.000         0.000         0.000         0.000
  WSL2479                     60.538         0.000         0.000         0.000         0.000
  WSL2480                    114.026         0.000         0.000         0.000         0.000
  WSL2482                    110.168         0.000         0.000         0.000         0.000
  WSL2484                     99.762         0.000         0.000         0.000         0.000
  WSL2493                     45.386         0.000         0.000         0.000         0.000
  8                          102.180         0.000         0.000         0.000         0.000
  19                           0.000         0.000         0.000         0.000         0.000
  17                          94.882         0.000         0.000         0.000         0.000
  CC-Pump-1                   36.010         0.000         0.000         0.000         0.000
  CC-Pump-2                   36.010         0.000         0.000         0.000         0.000
  

  Analysis begun on:  Fri Aug 30 12:47:31 2019
  Analysis ended on:  Fri Aug 30 12:47:31 2019
  Total elapsed time: < 1 sec