
  EPA STORM WATER MANAGEMENT MODEL - VERSION 5.1 (Build 5.2.0.dev5)
  --------------------------------------------------------------

  
  *********************************************************
  NOTE: The summary statistics displayed in this report are
  based on results found at every computational time step,  
  not just on results from each reporting time step.
  *********************************************************
  
  ****************
  Analysis Options
  ****************
  Flow Units ............... MLD
  Process Models:
    Rainfall/Runoff ........ YES
    RDII ................... NO
    Snowmelt ............... NO
    Groundwater ............ NO
    Flow Routing ........... YES
    Ponding Allowed ........ NO
    Water Quality .......... YES
  Infiltration Method ...... GREEN_AMPT
  Flow Routing Method ...... DYNWAVE
  Surcharge Method ......... EXTRAN
  Starting Date ............ 08/28/2015 08:00:00
  Ending Date .............. 08/28/2015 11:50:00
  Antecedent Dry Days ...... 4.0
  Report Time Step ......... 00:01:00
  Wet Time Step ............ 00:01:00
  Dry Time Step ............ 00:01:00
  Routing Time Step ........ 5.00 sec
  Variable Time Step ....... YES
  Maximum Trials ........... 8
  Number of Threads ........ 1
  Head Tolerance ........... 0.001500 m
  
  
  **************************        Volume         Depth
  Runoff Quantity Continuity     hectare-m            mm
  **************************     ---------       -------
  Total Precipitation ......         1.608        25.990
  Evaporation Loss .........         0.000         0.000
  Infiltration Loss ........         0.563         9.094
  Surface Runoff ...........         0.413         6.675
  Final Storage ............         0.632        10.221
  Continuity Error (%) .....        -0.004
  
  
  **************************           COD         NH3-N            TN            TP            SS
  Runoff Quality Continuity             kg            kg            kg            kg            kg
  **************************    ----------    ----------    ----------    ----------    ----------
  Initial Buildup ..........      2504.640         0.000         0.000         0.000         0.000
  Surface Buildup ..........        19.567         0.000         0.000         0.000         0.000
  Wet Deposition ...........         0.000         0.000         0.000         0.000         0.000
  Sweeping Removal .........         0.000         0.000         0.000         0.000         0.000
  Infiltration Loss ........       142.985         0.000         0.000         0.000         0.000
  BMP Removal ..............         0.000         0.000         0.000         0.000         0.000
  Surface Runoff ...........       849.827         0.000         0.000         0.000         0.000
  Remaining Buildup ........      1529.358         0.000         0.000         0.000         0.000
  Continuity Error (%) .....         0.081         0.000         0.000         0.000         0.000
  
  
  **************************        Volume        Volume
  Flow Routing Continuity        hectare-m      10^6 ltr
  **************************     ---------     ---------
  Dry Weather Inflow .......         0.000         0.000
  Wet Weather Inflow .......         0.412         4.119
  Groundwater Inflow .......         0.000         0.000
  RDII Inflow ..............         0.000         0.000
  External Inflow ..........         0.082         0.822
  External Outflow .........         0.413         4.132
  Flooding Loss ............         0.042         0.419
  Evaporation Loss .........         0.000         0.000
  Exfiltration Loss ........         0.000         0.000
  Initial Stored Volume ....         0.000         0.000
  Final Stored Volume ......         0.053         0.534
  Continuity Error (%) .....        -2.916
  
  
  **************************           COD         NH3-N            TN            TP            SS
  Quality Routing Continuity            kg            kg            kg            kg            kg
  **************************    ----------    ----------    ----------    ----------    ----------
  Dry Weather Inflow .......         0.000         0.000         0.000         0.000         0.000
  Wet Weather Inflow .......       848.279         0.000         0.000         0.000         0.000
  Groundwater Inflow .......         0.000         0.000         0.000         0.000         0.000
  RDII Inflow ..............         0.000         0.000         0.000         0.000         0.000
  External Inflow ..........       137.264         0.000         0.000         0.000         0.000
  External Outflow .........       753.944         0.000         0.000         0.000         0.000
  Flooding Loss ............       121.203         0.000         0.000         0.000         0.000
  Exfiltration Loss ........         0.000         0.000         0.000         0.000         0.000
  Mass Reacted .............         0.000         0.000         0.000         0.000         0.000
  Initial Stored Mass ......         0.000         0.000         0.000         0.000         0.000
  Final Stored Mass ........        75.198         0.000         0.000         0.000         0.000
  Continuity Error (%) .....         3.571         0.000         0.000         0.000         0.000
  
  
  *************************
  Highest Continuity Errors
  *************************
  Node WS02006230 (6.27%)
  Node WS02006229 (3.83%)
  Node WS02006231 (3.29%)
  Node WS02006242 (3.24%)
  Node WS02006240 (2.96%)
  
  
  ***************************
  Time-Step Critical Elements
  ***************************
  Link 8 (87.41%)
  Link WSL2448 (6.68%)
  Link 17 (4.75%)
  
  
  ********************************
  Highest Flow Instability Indexes
  ********************************
  Link WSL2301 (2)
  Link WSL2302 (2)
  Link WSL2297 (2)
  Link WSL2296 (2)
  Link WSL2298 (1)
  
  
  *************************
  Routing Time Step Summary
  *************************
  Minimum Time Step           :     0.00 sec
  Average Time Step           :     0.86 sec
  Maximum Time Step           :     5.00 sec
  Percent in Steady State     :     0.00
  Average Iterations per Step :     2.14
  Percent Not Converging      :     1.93
  
  
  ***************************
  Subcatchment Runoff Summary
  ***************************
  
  ------------------------------------------------------------------------------------------------------------------------------
                            Total      Total      Total      Total     Imperv       Perv      Total       Total     Peak  Runoff
                           Precip      Runon       Evap      Infil     Runoff     Runoff     Runoff      Runoff   Runoff   Coeff
  Subcatchment                 mm         mm         mm         mm         mm         mm         mm    10^6 ltr      MLD
  ------------------------------------------------------------------------------------------------------------------------------
  1                         25.99      35.47       0.00      10.83      14.62      17.61      32.23        0.39     7.51   0.524
  2                         25.99       0.00       0.00       8.60       6.26       3.49       9.75        0.33     6.89   0.375
  3                         25.99       0.00       0.00       8.67       6.19       2.97       9.16        0.47     9.76   0.353
  35                        25.99       0.00       0.00       8.58       6.28       3.63       9.91        0.30     6.30   0.381
  36                        25.99      19.89       0.00      10.50      10.63       7.01      17.64        1.04    19.97   0.385
  40                        25.99       5.24       0.00       9.16       7.43       4.48      11.91        0.47     9.38   0.381
  41                        25.99       0.00       0.00       8.49       6.33       4.27      10.60        0.21     4.34   0.408
  42                        25.99       0.00       0.00       8.52       6.31       4.03      10.34        0.24     4.97   0.398
  43                        25.99       0.00       0.00       8.02       6.44       7.13      13.57        0.05     1.08   0.522
  44                        25.99     292.77       0.00      16.94      78.03     178.86     256.89        0.95    19.32   0.806
  45                        25.99       0.00       0.00       8.33       6.38       5.29      11.67        0.12     2.56   0.449
  46                        25.99      16.86       0.00       9.98      10.21       9.08      19.28        0.41     7.99   0.450
  47                        25.99       0.00       0.00       8.35       6.38       5.16      11.54        0.13     2.73   0.444
  48                        25.99       8.08       0.00       9.20       8.22       7.10      15.32        0.24     4.84   0.450
  55                        25.99      12.14       0.00       9.30       9.26      10.26      19.52        0.16     3.24   0.512
  56                        25.99      18.47       0.00      10.09      10.58       9.59      20.17        0.43     8.36   0.454
  57                        25.99       0.00       0.00       8.67       6.20       2.99       9.19        0.46     9.60   0.354
  59                        25.99       0.00       0.00       8.28       6.40       5.63      12.03        0.10     2.17   0.463
  60                        25.99      26.23       0.00      10.03      12.71      18.25      30.96        0.16     3.25   0.593
  61                        25.99       0.00       0.00       8.82       5.88       1.74       7.62        1.37    28.31   0.293
  64                        25.99       0.00       0.00       8.37       6.37       5.03      11.40        0.14     2.91   0.439
  
  
  ****************************
  Subcatchment Washoff Summary
  ****************************
  
  ------------------------------------------------------------------------------------------
                                 COD         NH3-N            TN            TP            SS
  Subcatchment                    kg            kg            kg            kg            kg
  ------------------------------------------------------------------------------------------
  1                           73.168         0.000         0.000         0.000         0.000
  2                            0.000         0.000         0.000         0.000         0.000
  3                            0.000         0.000         0.000         0.000         0.000
  35                          70.855         0.000         0.000         0.000         0.000
  36                         361.009         0.000         0.000         0.000         0.000
  40                         131.131         0.000         0.000         0.000         0.000
  41                          49.575         0.000         0.000         0.000         0.000
  42                          56.439         0.000         0.000         0.000         0.000
  43                          12.274         0.000         0.000         0.000         0.000
  44                         332.692         0.000         0.000         0.000         0.000
  45                          29.656         0.000         0.000         0.000         0.000
  46                         134.970         0.000         0.000         0.000         0.000
  47                          31.528         0.000         0.000         0.000         0.000
  48                          72.080         0.000         0.000         0.000         0.000
  55                          48.256         0.000         0.000         0.000         0.000
  56                         137.672         0.000         0.000         0.000         0.000
  57                         105.566         0.000         0.000         0.000         0.000
  59                          25.074         0.000         0.000         0.000         0.000
  60                          45.009         0.000         0.000         0.000         0.000
  61                         290.145         0.000         0.000         0.000         0.000
  64                          33.600         0.000         0.000         0.000         0.000
  ------------------------------------------------------------------------------------------
  System                    2040.700         0.000         0.000         0.000         0.000
  
  
  ******************
  Node Depth Summary
  ******************
  
  ---------------------------------------------------------------------------------
                                 Average  Maximum  Maximum  Time of Max    Reported
                                   Depth    Depth      HGL   Occurrence   Max Depth
  Node                 Type       Meters   Meters   Meters  days hr:min      Meters
  ---------------------------------------------------------------------------------
  WS01000070           JUNCTION     0.00     0.00     0.00     0  00:00        0.00
  WS01000323           JUNCTION     0.00     0.00     0.00     0  00:00        0.00
  WS01000533           JUNCTION     0.00     0.00     6.86     0  00:00        0.00
  WS01005172           JUNCTION     0.00     0.00     0.00     0  00:00        0.00
  WS01005181           JUNCTION     0.00     0.00     0.00     0  00:00        0.00
  WS01009841           JUNCTION     0.00     0.00     0.00     0  00:00        0.00
  WS02000078           JUNCTION     0.00     0.00     0.00     0  00:00        0.00
  WS02000112           JUNCTION     0.00     0.00     0.00     0  00:00        0.00
  WS02000136           JUNCTION     0.00     0.00     0.00     0  00:00        0.00
  WS02004053           JUNCTION     0.00     0.00     0.00     0  00:00        0.00
  WS02004401           JUNCTION     2.21     2.36     8.36     0  03:11        2.36
  WS02005192           JUNCTION     0.51     1.20     9.07     0  01:37        0.76
  WS02005193           JUNCTION     0.55     1.51     9.33     0  01:37        0.80
  WS02005196           JUNCTION     0.53     1.09     8.94     0  03:22        0.78
  WS02006109           JUNCTION     1.63     1.80     8.42     0  03:10        1.80
  WS02006110           JUNCTION     1.64     1.81     8.41     0  03:10        1.81
  WS02006111           JUNCTION     1.65     1.81     8.39     0  03:00        1.80
  WS02006112           JUNCTION     2.09     2.26     8.38     0  03:00        2.25
  WS02006113           JUNCTION     1.65     1.81     8.40     0  03:00        1.81
  WS02006115           JUNCTION     2.11     2.27     8.37     0  03:00        2.27
  WS02006116           JUNCTION     2.17     2.33     8.37     0  03:22        2.32
  WS02006183           JUNCTION     0.00     0.00     0.00     0  00:00        0.00
  WS02006228           JUNCTION     1.60     1.77     8.42     0  03:10        1.77
  WS02006229           JUNCTION     1.56     1.74     8.43     0  03:10        1.73
  WS02006230           JUNCTION     1.50     1.68     8.43     0  03:10        1.68
  WS02006231           JUNCTION     1.36     1.84     8.74     0  01:31        1.53
  WS02006232           JUNCTION     1.24     2.12     9.15     0  01:31        1.40
  WS02006234           JUNCTION     1.12     1.33     8.49     0  01:32        1.27
  WS02006235           JUNCTION     1.11     1.32     8.49     0  01:33        1.26
  WS02006238           JUNCTION     1.10     1.30     8.48     0  01:33        1.25
  WS02006239           JUNCTION     1.07     1.32     8.53     0  01:33        1.22
  WS02006242           JUNCTION     0.99     1.49     8.79     0  01:33        1.14
  WS02006240           JUNCTION     1.00     1.40     8.69     0  01:33        1.14
  WS02006243           JUNCTION     0.87     1.48     8.90     0  01:33        1.02
  WS02006245           JUNCTION     0.81     1.39     8.88     0  01:34        0.95
  WS02006247           JUNCTION     0.79     1.46     8.97     0  01:34        0.93
  WS02006248           JUNCTION     0.71     0.85     8.44     0  03:10        0.85
  WS02006249           JUNCTION     0.72     1.09     8.69     0  01:37        0.88
  WS02006251           JUNCTION     0.68     2.21     9.88     0  01:37        0.91
  WS02006253           JUNCTION     0.57     0.83     8.63     0  03:22        0.82
  WS02618401           JUNCTION     0.00     0.00     0.00     0  00:00        0.00
  WSA1649              JUNCTION     0.00     0.00     0.00     0  00:00        0.00
  outfall-5            OUTFALL      0.15     0.25     7.91     0  03:10        0.25
  outfall-14           OUTFALL      0.12     0.16     7.82     0  03:11        0.16
  outfall-16           OUTFALL      0.00     0.00     8.39     0  00:00        0.00
  CC-storage           STORAGE      2.69     5.63     8.81     0  02:05        5.63
  
  
  *******************
  Node Inflow Summary
  *******************
  
  -------------------------------------------------------------------------------------------------
                                  Maximum  Maximum                  Lateral       Total        Flow
                                  Lateral    Total  Time of Max      Inflow      Inflow     Balance
                                   Inflow   Inflow   Occurrence      Volume      Volume       Error
  Node                 Type           MLD      MLD  days hr:min    10^6 ltr    10^6 ltr     Percent
  -------------------------------------------------------------------------------------------------
  WS01000070           JUNCTION      0.00     0.00     0  00:00           0           0       0.000 ltr
  WS01000323           JUNCTION      0.00     0.00     0  00:00           0           0       0.000 ltr
  WS01000533           JUNCTION      0.00     0.00     0  00:00           0           0       0.000 ltr
  WS01005172           JUNCTION      0.00     0.00     0  00:00           0           0       0.000 ltr
  WS01005181           JUNCTION      0.00     0.00     0  00:00           0           0       0.000 ltr
  WS01009841           JUNCTION      0.00     0.00     0  00:00           0           0       0.000 ltr
  WS02000078           JUNCTION      0.00     0.00     0  00:00           0           0       0.000 ltr
  WS02000112           JUNCTION      0.00     0.00     0  00:00           0           0       0.000 ltr
  WS02000136           JUNCTION      0.00     0.00     0  00:00           0           0       0.000 ltr
  WS02004053           JUNCTION      0.00     0.00     0  00:00           0           0       0.000 ltr
  WS02004401           JUNCTION      0.05    26.13     0  03:11      0.0086        1.67       1.740
  WS02005192           JUNCTION      9.70    10.90     0  01:36       0.476       0.479       0.544
  WS02005193           JUNCTION      0.09    17.21     0  01:35       0.014        0.52       1.388
  WS02005196           JUNCTION      0.12    14.11     0  01:35      0.0183       0.501       1.360
  WS02006109           JUNCTION      0.08    20.15     0  03:13      0.0129        1.24       1.972
  WS02006110           JUNCTION      0.08    20.23     0  03:13      0.0126        1.23       2.023
  WS02006111           JUNCTION      0.24    25.66     0  03:11      0.0352         1.7       1.203
  WS02006112           JUNCTION      0.18    25.81     0  03:11      0.0263        1.71       1.890
  WS02006113           JUNCTION      9.91    25.47     0  03:11       0.492        1.69       1.395
  WS02006115           JUNCTION      0.08    25.88     0  03:11      0.0129         1.7       2.206
  WS02006116           JUNCTION      0.24    26.08     0  03:11      0.0347         1.7       1.981
  WS02006183           JUNCTION      0.00     0.00     0  00:00           0           0       0.000 ltr
  WS02006228           JUNCTION     19.47    20.07     0  03:13       0.974         1.3       1.373
  WS02006229           JUNCTION      0.13    18.08     0  01:30      0.0193       0.405       3.987
  WS02006230           JUNCTION      0.07    20.22     0  01:30      0.0111       0.415       6.695
  WS02006231           JUNCTION      0.13    23.67     0  01:31      0.0197       0.422       3.397
  WS02006232           JUNCTION      6.97    29.75     0  01:31       0.341       0.627       2.353
  WS02006234           JUNCTION      0.14    29.54     0  01:31      0.0208       0.514       2.693
  WS02006235           JUNCTION      0.14    29.64     0  01:31      0.0215       0.519       1.695
  WS02006238           JUNCTION      0.15    31.35     0  01:31      0.0226       0.524       1.608
  WS02006239           JUNCTION      0.11    34.66     0  01:32      0.0167       0.533       2.837
  WS02006242           JUNCTION      0.08    35.54     0  01:32      0.0124       0.564       3.344
  WS02006240           JUNCTION      0.06    35.11     0  01:32     0.00952       0.545       3.047
  WS02006243           JUNCTION      0.17    34.99     0  01:31      0.0259       0.587       2.796
  WS02006245           JUNCTION      0.07    34.97     0  01:31      0.0109       0.593       2.237
  WS02006247           JUNCTION      7.64    35.08     0  01:31       0.413       0.964       1.157
  WS02006248           JUNCTION      0.12    53.36     0  03:10      0.0185        2.73       0.391
  WS02006249           JUNCTION      0.19    43.11     0  03:10      0.0275        2.02       0.723
  WS02006251           JUNCTION      3.30    42.95     0  03:10       0.171        2.01       0.708
  WS02006253           JUNCTION      0.11    40.94     0  02:30      0.0166        1.86       0.390
  WS02618401           JUNCTION      0.00     0.00     0  00:00           0           0       0.000 ltr
  WSA1649              JUNCTION      0.00     0.00     0  00:00           0           0       0.000 ltr
  outfall-5            OUTFALL       0.00    53.39     0  03:10           0         2.5       0.000
  outfall-14           OUTFALL       0.00    26.13     0  03:11           0        1.63       0.000
  outfall-16           OUTFALL       0.00     0.00     0  00:00           0           0       0.000 ltr
  CC-storage           STORAGE      29.93    29.93     0  02:49        1.65        1.65      -9.474
  
  
  **********************
  Node Surcharge Summary
  **********************
  
  Surcharging occurs when water rises above the top of the highest conduit.
  ---------------------------------------------------------------------
                                               Max. Height   Min. Depth
                                   Hours       Above Crown    Below Rim
  Node                 Type      Surcharged         Meters       Meters
  ---------------------------------------------------------------------
  WS01000070           JUNCTION        3.83          0.000        0.000
  WS01000323           JUNCTION        3.83          0.000        0.000
  WS01000533           JUNCTION        3.83          0.000        2.147
  WS01005172           JUNCTION        3.83          0.000        0.000
  WS01005181           JUNCTION        3.83          0.000        0.000
  WS01009841           JUNCTION        3.83          0.000        0.000
  WS02000078           JUNCTION        3.83          0.000        0.000
  WS02000112           JUNCTION        3.83          0.000        0.000
  WS02000136           JUNCTION        3.83          0.000        0.000
  WS02004053           JUNCTION        3.83          0.000        0.000
  WS02005192           JUNCTION        0.61          0.596        2.223
  WS02005193           JUNCTION        0.88          0.905        1.712
  WS02005196           JUNCTION        0.71          0.488        2.218
  WS02006109           JUNCTION        2.32          0.996        0.842
  WS02006110           JUNCTION        2.32          1.007        0.838
  WS02006111           JUNCTION        2.33          1.005        0.872
  WS02006112           JUNCTION        2.44          1.255        0.428
  WS02006113           JUNCTION        2.33          1.010        0.923
  WS02006115           JUNCTION        2.46          1.269        1.030
  WS02006116           JUNCTION        2.54          1.326        1.024
  WS02006183           JUNCTION        3.83          0.000        0.000
  WS02006228           JUNCTION        2.32          0.975        1.256
  WS02006229           JUNCTION        2.32          0.935        1.519
  WS02006231           JUNCTION        2.31          1.141        0.402
  WS02006232           JUNCTION        2.30          1.422        0.067
  WS02006234           JUNCTION        2.30          0.626        0.631
  WS02006235           JUNCTION        2.30          0.623        0.671
  WS02006238           JUNCTION        2.30          0.605        0.829
  WS02006239           JUNCTION        2.30          0.617        0.712
  WS02006242           JUNCTION        2.29          0.791        0.058
  WS02006240           JUNCTION        2.29          0.701        0.702
  WS02006243           JUNCTION        2.26          0.780        0.000
  WS02006245           JUNCTION        2.24          0.695        0.160
  WS02006247           JUNCTION        2.24          0.760        0.000
  WS02006249           JUNCTION        1.65          0.388        0.000
  WS02006251           JUNCTION        1.31          1.510        0.000
  WS02006253           JUNCTION        0.50          0.126        2.328
  WS02618401           JUNCTION        3.83          0.000        0.000
  WSA1649              JUNCTION        3.83          0.000        0.000
  
  
  *********************
  Node Flooding Summary
  *********************
  
  Flooding refers to all water that overflows a node, whether it ponds or not.
  --------------------------------------------------------------------------
                                                             Total   Maximum
                                 Maximum   Time of Max       Flood    Ponded
                        Hours       Rate    Occurrence      Volume     Depth
  Node                 Flooded       MLD   days hr:min    10^6 ltr    Meters
  --------------------------------------------------------------------------
  WS02006243              0.01      5.36      0  01:33       0.000     0.000
  WS02006247              0.01     14.03      0  01:34       0.000     0.000
  WS02006249              0.01      5.31      0  01:37       0.000     0.000
  WS02006251              0.01     13.33      0  01:37       0.000     0.000
  CC-storage              0.49     29.93      0  02:49       0.418     0.000
  
  
  **********************
  Storage Volume Summary
  **********************
  
  --------------------------------------------------------------------------------------------------
                         Average     Avg  Evap Exfil       Maximum     Max    Time of Max    Maximum
                          Volume    Pcnt  Pcnt  Pcnt        Volume    Pcnt     Occurrence    Outflow
  Storage Unit           1000 m3    Full  Loss  Loss       1000 m3    Full    days hr:min        MLD
  --------------------------------------------------------------------------------------------------
  CC-storage               0.076      48     0     0         0.159     100       0  02:05      34.56
  
  
  ***********************
  Outfall Loading Summary
  ***********************
  
  ---------------------------------------------------------------------------------------------------------------------------------
                         Flow       Avg       Max       Total         Total         Total         Total         Total         Total
                         Freq      Flow      Flow      Volume           COD         NH3-N            TN            TP            SS
  Outfall Node           Pcnt       MLD       MLD    10^6 ltr            kg            kg            kg            kg            kg
  ---------------------------------------------------------------------------------------------------------------------------------
  outfall-5             91.44     28.54     53.39       2.498       417.631         0.000         0.000         0.000         0.000
  outfall-14            92.20     18.36     26.13       1.634       336.331         0.000         0.000         0.000         0.000
  outfall-16             0.00      0.00      0.00       0.000         0.000         0.000         0.000         0.000         0.000
  ---------------------------------------------------------------------------------------------------------------------------------
  System                61.21     46.90     79.23       4.132       753.962         0.000         0.000         0.000         0.000
  
  
  ********************
  Link Flow Summary
  ********************
  
  -----------------------------------------------------------------------------
                                 Maximum  Time of Max   Maximum    Max/    Max/
                                  |Flow|   Occurrence   |Veloc|    Full    Full
  Link                 Type          MLD  days hr:min     m/sec    Flow   Depth
  -----------------------------------------------------------------------------
  WSL2038              CONDUIT      9.72     0  02:44      0.56    0.48    1.00
  WSL2039              CONDUIT     17.12     0  01:35      1.00    0.88    1.00
  WSL2041              CONDUIT     13.98     0  01:35      0.88    0.69    1.00
  WSL2294              CONDUIT     20.15     0  03:13      0.46    0.68    1.00
  WSL2295              CONDUIT     20.23     0  03:13      0.50    0.91    1.00
  WSL2296              CONDUIT     25.66     0  03:11      0.63    0.14    1.00
  WSL2297              CONDUIT     25.81     0  03:11      0.38    0.49    1.00
  WSL2298              CONDUIT     25.47     0  03:11      0.87    1.17    1.00
  WSL2301              CONDUIT     25.88     0  03:11      0.38    0.24    1.00
  WSL2302              CONDUIT     26.08     0  03:11      0.38    0.32    1.00
  WSL2441              CONDUIT     20.07     0  03:13      0.46    0.51    1.00
  WSL2442              CONDUIT     17.95     0  01:30      0.63    0.46    1.00
  WSL2443              CONDUIT     20.15     0  01:30      0.73    0.31    1.00
  WSL2444              CONDUIT     23.53     0  01:31      1.02    0.37    1.00
  WSL2446              CONDUIT     28.67     0  01:31      1.42    0.49    1.00
  WSL2447              CONDUIT     29.40     0  01:31      1.47    1.51    1.00
  WSL2448              CONDUIT     29.49     0  01:31      1.35    0.83    1.00
  WSL2449              CONDUIT     31.20     0  01:31      1.29    1.09    1.00
  WSL2450              CONDUIT     34.55     0  01:32      1.33    0.72    1.00
  WSL2451              CONDUIT     35.05     0  01:32      1.32    2.29    1.00
  WSL2452              CONDUIT     35.46     0  01:32      1.34    0.68    1.00
  WSL2454              CONDUIT     34.82     0  01:31      1.47    0.81    1.00
  WSL2478              CONDUIT     34.90     0  01:31      1.42    1.23    1.00
  WSL2479              CONDUIT     34.33     0  01:31      1.41    0.65    1.00
  WSL2480              CONDUIT     43.11     0  03:10      1.42    1.99    1.00
  WSL2482              CONDUIT     42.96     0  03:10      1.36    1.12    1.00
  WSL2484              CONDUIT     40.94     0  02:30      1.52    0.58    1.00
  WSL2493              CONDUIT     16.01     0  01:30      0.51    0.27    1.00
  8                    CONDUIT     53.39     0  03:10      7.56    0.70    0.62
  19                   CONDUIT      0.00     0  00:00      0.00    0.00    0.00
  17                   CONDUIT     26.13     0  03:11      6.41    0.34    0.40
  CC-Pump-1            PUMP        17.28     0  02:20              1.00
  CC-Pump-2            PUMP        17.28     0  02:20              1.00
  
  
  ***************************
  Flow Classification Summary
  ***************************
  
  -------------------------------------------------------------------------------------
                      Adjusted    ---------- Fraction of Time in Flow Class ---------- 
                       /Actual         Up    Down  Sub   Sup   Up    Down  Norm  Inlet 
  Conduit               Length    Dry  Dry   Dry   Crit  Crit  Crit  Crit  Ltd   Ctrl  
  -------------------------------------------------------------------------------------
  WSL2038                 1.00   0.00  0.00  0.00  1.00  0.00  0.00  0.00  0.01  0.00
  WSL2039                 1.00   0.00  0.00  0.00  1.00  0.00  0.00  0.00  0.00  0.00
  WSL2041                 1.00   0.00  0.00  0.00  1.00  0.00  0.00  0.00  0.30  0.00
  WSL2294                 1.00   0.00  0.00  0.00  1.00  0.00  0.00  0.00  0.00  0.00
  WSL2295                 1.00   0.00  0.00  0.00  1.00  0.00  0.00  0.00  0.00  0.00
  WSL2296                 1.00   0.00  0.00  0.00  1.00  0.00  0.00  0.00  0.17  0.00
  WSL2297                 1.00   0.00  0.00  0.00  1.00  0.00  0.00  0.00  0.00  0.00
  WSL2298                 1.00   0.00  0.00  0.00  0.98  0.02  0.00  0.00  0.00  0.00
  WSL2301                 1.00   0.00  0.00  0.00  1.00  0.00  0.00  0.00  0.04  0.00
  WSL2302                 1.00   0.00  0.00  0.00  1.00  0.00  0.00  0.00  0.01  0.00
  WSL2441                 1.00   0.00  0.00  0.00  1.00  0.00  0.00  0.00  0.00  0.00
  WSL2442                 1.00   0.00  0.00  0.00  1.00  0.00  0.00  0.00  0.17  0.00
  WSL2443                 1.00   0.00  0.00  0.00  1.00  0.00  0.00  0.00  0.31  0.00
  WSL2444                 1.00   0.00  0.00  0.00  0.95  0.05  0.00  0.00  0.23  0.00
  WSL2446                 1.00   0.00  0.00  0.00  0.95  0.05  0.00  0.00  0.00  0.00
  WSL2447                 1.00   0.00  0.00  0.00  1.00  0.00  0.00  0.00  0.00  0.00
  WSL2448                 1.00   0.00  0.00  0.00  1.00  0.00  0.00  0.00  0.00  0.00
  WSL2449                 1.00   0.00  0.00  0.00  1.00  0.00  0.00  0.00  0.02  0.00
  WSL2450                 1.00   0.00  0.00  0.00  1.00  0.00  0.00  0.00  0.36  0.00
  WSL2451                 1.00   0.00  0.00  0.00  1.00  0.00  0.00  0.00  0.00  0.00
  WSL2452                 1.00   0.00  0.00  0.00  1.00  0.00  0.00  0.00  0.35  0.00
  WSL2454                 1.00   0.00  0.00  0.00  1.00  0.00  0.00  0.00  0.02  0.00
  WSL2478                 1.00   0.00  0.00  0.00  1.00  0.00  0.00  0.00  0.00  0.00
  WSL2479                 1.00   0.00  0.00  0.00  1.00  0.00  0.00  0.00  0.36  0.00
  WSL2480                 1.00   0.00  0.00  0.00  1.00  0.00  0.00  0.00  0.00  0.00
  WSL2482                 1.00   0.00  0.00  0.00  1.00  0.00  0.00  0.00  0.35  0.00
  WSL2484                 1.00   0.00  0.00  0.00  1.00  0.00  0.00  0.00  0.34  0.00
  WSL2493                 1.00   0.00  0.00  0.00  1.00  0.00  0.00  0.00  0.05  0.00
  8                       1.00   0.09  0.00  0.00  0.00  0.91  0.00  0.00  0.09  0.00
  19                      1.00   1.00  0.00  0.00  0.00  0.00  0.00  0.00  0.00  0.00
  17                      1.00   0.08  0.00  0.00  0.00  0.92  0.00  0.00  0.02  0.00
  
  
  *************************
  Conduit Surcharge Summary
  *************************
  
  ----------------------------------------------------------------------------
                                                           Hours        Hours 
                         --------- Hours Full --------   Above Full   Capacity
  Conduit                Both Ends  Upstream  Dnstream   Normal Flow   Limited
  ----------------------------------------------------------------------------
  WSL2038                     0.61      0.61      0.71      0.01         0.01
  WSL2039                     0.88      0.88      0.93      0.01         0.01
  WSL2041                     0.70      0.71      0.88      0.01         0.01
  WSL2294                     2.32      2.32      2.32      0.01         0.01
  WSL2295                     2.32      2.32      2.33      0.01         0.02
  WSL2296                     2.33      2.33      2.74      0.01         0.01
  WSL2297                     2.44      2.44      2.46      0.01         0.01
  WSL2298                     2.33      2.33      2.33      0.97         1.00
  WSL2301                     2.46      2.46      2.54      0.01         0.01
  WSL2302                     2.54      2.54      2.60      0.01         0.01
  WSL2441                     2.32      2.32      2.32      0.01         0.01
  WSL2442                     2.32      2.32      2.32      0.01         0.01
  WSL2443                     2.31      2.31      2.32      0.01         0.01
  WSL2444                     2.30      2.30      2.31      0.01         0.01
  WSL2446                     2.30      2.30      2.30      0.01         0.01
  WSL2447                     2.30      2.30      2.30      0.04         0.02
  WSL2448                     2.30      2.30      2.30      0.01         0.01
  WSL2449                     2.30      2.30      2.30      0.01         0.01
  WSL2450                     2.29      2.29      2.30      0.01         0.01
  WSL2451                     2.29      2.29      2.29      0.09         0.01
  WSL2452                     2.26      2.26      2.29      0.01         0.01
  WSL2454                     2.24      2.24      2.26      0.01         0.01
  WSL2478                     2.24      2.24      2.24      0.05         0.01
  WSL2479                     1.73      1.73      2.24      0.01         0.01
  WSL2480                     1.65      1.65      1.73      1.00         0.94
  WSL2482                     1.31      1.31      1.65      0.41         0.43
  WSL2484                     0.50      0.50      1.31      0.01         0.01
  WSL2493                     2.32      2.32      2.32      0.01         0.01
  
  
  ***************
  Pumping Summary
  ***************
  
  ---------------------------------------------------------------------------------------------------------
                                                  Min       Avg       Max     Total     Power    % Time Off
                        Percent   Number of      Flow      Flow      Flow    Volume     Usage    Pump Curve
  Pump                 Utilized   Start-Ups       MLD       MLD       MLD  10^6 ltr     Kw-hr    Low   High
  ---------------------------------------------------------------------------------------------------------
  CC-Pump-1               39.11           3      0.00     11.22     17.28     0.665      5.95    0.0    0.0
  CC-Pump-2               39.11           3      0.00     11.22     17.28     0.665      5.95    0.0    0.0
  
  
  ***************************
  Link Pollutant Load Summary
  ***************************
  
  ------------------------------------------------------------------------------------------
                                 COD         NH3-N            TN            TP            SS
  Link                            kg            kg            kg            kg            kg
  ------------------------------------------------------------------------------------------
  WSL2038                    108.563         0.000         0.000         0.000         0.000
  WSL2039                    113.704         0.000         0.000         0.000         0.000
  WSL2041                    111.254         0.000         0.000         0.000         0.000
  WSL2294                    353.818         0.000         0.000         0.000         0.000
  WSL2295                    349.228         0.000         0.000         0.000         0.000
  WSL2296                    350.669         0.000         0.000         0.000         0.000
  WSL2297                    347.435         0.000         0.000         0.000         0.000
  WSL2298                    348.024         0.000         0.000         0.000         0.000
  WSL2301                    343.633         0.000         0.000         0.000         0.000
  WSL2302                    341.618         0.000         0.000         0.000         0.000
  WSL2441                    358.084         0.000         0.000         0.000         0.000
  WSL2442                     51.727         0.000         0.000         0.000         0.000
  WSL2443                     43.637         0.000         0.000         0.000         0.000
  WSL2444                     36.229         0.000         0.000         0.000         0.000
  WSL2446                     36.957         0.000         0.000         0.000         0.000
  WSL2447                     42.030         0.000         0.000         0.000         0.000
  WSL2448                     44.356         0.000         0.000         0.000         0.000
  WSL2449                     47.556         0.000         0.000         0.000         0.000
  WSL2450                     51.965         0.000         0.000         0.000         0.000
  WSL2451                     56.397         0.000         0.000         0.000         0.000
  WSL2452                     60.760         0.000         0.000         0.000         0.000
  WSL2454                     64.225         0.000         0.000         0.000         0.000
  WSL2478                     66.301         0.000         0.000         0.000         0.000
  WSL2479                    132.381         0.000         0.000         0.000         0.000
  WSL2480                    344.916         0.000         0.000         0.000         0.000
  WSL2482                    340.981         0.000         0.000         0.000         0.000
  WSL2484                    291.829         0.000         0.000         0.000         0.000
  WSL2493                     63.476         0.000         0.000         0.000         0.000
  8                          417.631         0.000         0.000         0.000         0.000
  19                           0.000         0.000         0.000         0.000         0.000
  17                         336.331         0.000         0.000         0.000         0.000
  CC-Pump-1                   88.109         0.000         0.000         0.000         0.000
  CC-Pump-2                   88.109         0.000         0.000         0.000         0.000
  

  Analysis begun on:  Fri Aug 30 12:47:50 2019
  Analysis ended on:  Fri Aug 30 12:47:51 2019
  Total elapsed time: 00:00:01