
  EPA STORM WATER MANAGEMENT MODEL - VERSION 5.1 (Build 5.2.0.dev5)
  --------------------------------------------------------------

  
  *********************************************************
  NOTE: The summary statistics displayed in this report are
  based on results found at every computational time step,  
  not just on results from each reporting time step.
  *********************************************************
  
  ****************
  Analysis Options
  ****************
  Flow Units ............... MLD
  Process Models:
    Rainfall/Runoff ........ YES
    RDII ................... NO
    Snowmelt ............... NO
    Groundwater ............ NO
    Flow Routing ........... YES
    Ponding Allowed ........ NO
    Water Quality .......... YES
  Infiltration Method ...... GREEN_AMPT
  Flow Routing Method ...... DYNWAVE
  Surcharge Method ......... EXTRAN
  Starting Date ............ 08/28/2015 08:00:00
  Ending Date .............. 08/28/2015 11:50:00
  Antecedent Dry Days ...... 4.0
  Report Time Step ......... 00:01:00
  Wet Time Step ............ 00:01:00
  Dry Time Step ............ 00:01:00
  Routing Time Step ........ 5.00 sec
  Variable Time Step ....... YES
  Maximum Trials ........... 8
  Number of Threads ........ 1
  Head Tolerance ........... 0.001500 m
  
  
  **************************        Volume         Depth
  Runoff Quantity Continuity     hectare-m            mm
  **************************     ---------       -------
  Total Precipitation ......         1.151        18.605
  Evaporation Loss .........         0.000         0.000
  Infiltration Loss ........         0.479         7.742
  Surface Runoff ...........         0.246         3.971
  Final Storage ............         0.426         6.893
  Continuity Error (%) .....        -0.007
  
  
  **************************           COD         NH3-N            TN            TP            SS
  Runoff Quality Continuity             kg            kg            kg            kg            kg
  **************************    ----------    ----------    ----------    ----------    ----------
  Initial Buildup ..........      2504.640         0.000         0.000         0.000         0.000
  Surface Buildup ..........        19.800         0.000         0.000         0.000         0.000
  Wet Deposition ...........         0.000         0.000         0.000         0.000         0.000
  Sweeping Removal .........         0.000         0.000         0.000         0.000         0.000
  Infiltration Loss ........        86.101         0.000         0.000         0.000         0.000
  BMP Removal ..............         0.000         0.000         0.000         0.000         0.000
  Surface Runoff ...........       403.534         0.000         0.000         0.000         0.000
  Remaining Buildup ........      2032.862         0.000         0.000         0.000         0.000
  Continuity Error (%) .....         0.077         0.000         0.000         0.000         0.000
  
  
  **************************        Volume        Volume
  Flow Routing Continuity        hectare-m      10^6 ltr
  **************************     ---------     ---------
  Dry Weather Inflow .......         0.000         0.000
  Wet Weather Inflow .......         0.245         2.450
  Groundwater Inflow .......         0.000         0.000
  RDII Inflow ..............         0.000         0.000
  External Inflow ..........         0.082         0.822
  External Outflow .........         0.282         2.819
  Flooding Loss ............         0.016         0.164
  Evaporation Loss .........         0.000         0.000
  Exfiltration Loss ........         0.000         0.000
  Initial Stored Volume ....         0.000         0.000
  Final Stored Volume ......         0.046         0.465
  Continuity Error (%) .....        -5.373
  
  
  **************************           COD         NH3-N            TN            TP            SS
  Quality Routing Continuity            kg            kg            kg            kg            kg
  **************************    ----------    ----------    ----------    ----------    ----------
  Dry Weather Inflow .......         0.000         0.000         0.000         0.000         0.000
  Wet Weather Inflow .......       402.509         0.000         0.000         0.000         0.000
  Groundwater Inflow .......         0.000         0.000         0.000         0.000         0.000
  RDII Inflow ..............         0.000         0.000         0.000         0.000         0.000
  External Inflow ..........       137.264         0.000         0.000         0.000         0.000
  External Outflow .........       400.394         0.000         0.000         0.000         0.000
  Flooding Loss ............        36.184         0.000         0.000         0.000         0.000
  Exfiltration Loss ........         0.000         0.000         0.000         0.000         0.000
  Mass Reacted .............         0.000         0.000         0.000         0.000         0.000
  Initial Stored Mass ......         0.000         0.000         0.000         0.000         0.000
  Final Stored Mass ........        70.122         0.000         0.000         0.000         0.000
  Continuity Error (%) .....         6.127         0.000         0.000         0.000         0.000
  
  
  *************************
  Highest Continuity Errors
  *************************
  Node WS02006230 (5.99%)
  Node WS02006242 (3.78%)
  Node WS02006240 (3.72%)
  Node WS02006229 (3.65%)
  Node WS02006243 (3.48%)
  
  
  ***************************
  Time-Step Critical Elements
  ***************************
  Link 8 (82.50%)
  Link 17 (8.24%)
  Link WSL2448 (7.93%)
  
  
  ********************************
  Highest Flow Instability Indexes
  ********************************
  Link WSL2302 (3)
  Link WSL2301 (3)
  Link WSL2297 (2)
  Link WSL2296 (2)
  Link WSL2298 (1)
  
  
  *************************
  Routing Time Step Summary
  *************************
  Minimum Time Step           :     0.07 sec
  Average Time Step           :     0.94 sec
  Maximum Time Step           :     5.00 sec
  Percent in Steady State     :    -0.00
  Average Iterations per Step :     2.15
  Percent Not Converging      :     1.73
  
  
  ***************************
  Subcatchment Runoff Summary
  ***************************
  
  ------------------------------------------------------------------------------------------------------------------------------
                            Total      Total      Total      Total     Imperv       Perv      Total       Total     Peak  Runoff
                           Precip      Runon       Evap      Infil     Runoff     Runoff     Runoff      Runoff   Runoff   Coeff
  Subcatchment                 mm         mm         mm         mm         mm         mm         mm    10^6 ltr      MLD
  ------------------------------------------------------------------------------------------------------------------------------
  1                         18.60      20.01       0.00       9.05       9.11       8.07      17.18        0.21     4.86   0.445
  2                         18.60       0.00       0.00       7.38       4.41       1.59       6.00        0.20     5.42   0.322
  3                         18.60       0.00       0.00       7.42       4.34       1.34       5.68        0.29     7.62   0.305
  35                        18.60       0.00       0.00       7.37       4.42       1.66       6.08        0.18     4.97   0.327
  36                        18.60      11.77       0.00       8.75       6.92       3.11      10.03        0.59    14.01   0.330
  40                        18.60       3.20       0.00       7.79       5.11       2.04       7.14        0.28     7.21   0.328
  41                        18.60       0.00       0.00       7.33       4.48       1.99       6.46        0.13     3.45   0.347
  42                        18.60       0.00       0.00       7.34       4.46       1.86       6.32        0.14     3.94   0.340
  43                        18.60       0.00       0.00       7.07       4.59       3.58       8.17        0.03     0.88   0.439
  44                        18.60     166.97       0.00      14.20      45.20      93.52     138.72        0.51    10.92   0.747
  45                        18.60       0.00       0.00       7.25       4.53       2.52       7.06        0.07     2.06   0.379
  46                        18.60       9.97       0.00       8.42       6.74       4.18      10.92        0.23     5.83   0.382
  47                        18.60       0.00       0.00       7.26       4.53       2.46       6.98        0.08     2.19   0.375
  48                        18.60       4.89       0.00       7.87       5.62       3.34       8.96        0.14     3.74   0.381
  55                        18.60       7.33       0.00       7.99       6.26       4.97      11.23        0.09     2.48   0.433
  56                        18.60      10.96       0.00       8.50       6.96       4.41      11.38        0.24     6.02   0.385
  57                        18.60       0.00       0.00       7.42       4.35       1.35       5.69        0.28     7.50   0.306
  59                        18.60       0.00       0.00       7.22       4.55       2.71       7.26        0.06     1.74   0.390
  60                        18.60      15.89       0.00       8.61       8.35       9.19      17.54        0.09     2.34   0.509
  61                        18.60       0.00       0.00       7.50       4.04       0.76       4.81        0.87    21.56   0.258
  64                        18.60       0.00       0.00       7.27       4.52       2.39       6.91        0.08     2.33   0.371
  
  
  ****************************
  Subcatchment Washoff Summary
  ****************************
  
  ------------------------------------------------------------------------------------------
                                 COD         NH3-N            TN            TP            SS
  Subcatchment                    kg            kg            kg            kg            kg
  ------------------------------------------------------------------------------------------
  1                           32.311         0.000         0.000         0.000         0.000
  2                            0.000         0.000         0.000         0.000         0.000
  3                            0.000         0.000         0.000         0.000         0.000
  35                          33.068         0.000         0.000         0.000         0.000
  36                         187.604         0.000         0.000         0.000         0.000
  40                          62.035         0.000         0.000         0.000         0.000
  41                          23.491         0.000         0.000         0.000         0.000
  42                          26.582         0.000         0.000         0.000         0.000
  43                           6.500         0.000         0.000         0.000         0.000
  44                         164.104         0.000         0.000         0.000         0.000
  45                          14.498         0.000         0.000         0.000         0.000
  46                          73.815         0.000         0.000         0.000         0.000
  47                          15.347         0.000         0.000         0.000         0.000
  48                          37.044         0.000         0.000         0.000         0.000
  55                          27.722         0.000         0.000         0.000         0.000
  56                          78.952         0.000         0.000         0.000         0.000
  57                          48.671         0.000         0.000         0.000         0.000
  59                          12.415         0.000         0.000         0.000         0.000
  60                          29.340         0.000         0.000         0.000         0.000
  61                         130.725         0.000         0.000         0.000         0.000
  64                          16.285         0.000         0.000         0.000         0.000
  ------------------------------------------------------------------------------------------
  System                    1020.509         0.000         0.000         0.000         0.000
  
  
  ******************
  Node Depth Summary
  ******************
  
  ---------------------------------------------------------------------------------
                                 Average  Maximum  Maximum  Time of Max    Reported
                                   Depth    Depth      HGL   Occurrence   Max Depth
  Node                 Type       Meters   Meters   Meters  days hr:min      Meters
  ---------------------------------------------------------------------------------
  WS01000070           JUNCTION     0.00     0.00     0.00     0  00:00        0.00
  WS01000323           JUNCTION     0.00     0.00     0.00     0  00:00        0.00
  WS01000533           JUNCTION     0.00     0.00     6.86     0  00:00        0.00
  WS01005172           JUNCTION     0.00     0.00     0.00     0  00:00        0.00
  WS01005181           JUNCTION     0.00     0.00     0.00     0  00:00        0.00
  WS01009841           JUNCTION     0.00     0.00     0.00     0  00:00        0.00
  WS02000078           JUNCTION     0.00     0.00     0.00     0  00:00        0.00
  WS02000112           JUNCTION     0.00     0.00     0.00     0  00:00        0.00
  WS02000136           JUNCTION     0.00     0.00     0.00     0  00:00        0.00
  WS02004053           JUNCTION     0.00     0.00     0.00     0  00:00        0.00
  WS02004401           JUNCTION     2.17     2.34     8.34     0  03:23        2.34
  WS02005192           JUNCTION     0.46     0.99     8.86     0  02:38        0.69
  WS02005193           JUNCTION     0.50     0.91     8.73     0  02:38        0.74
  WS02005196           JUNCTION     0.48     1.08     8.93     0  02:38        0.71
  WS02006109           JUNCTION     1.58     1.79     8.41     0  01:42        1.75
  WS02006110           JUNCTION     1.60     1.79     8.39     0  01:42        1.76
  WS02006111           JUNCTION     1.61     1.78     8.36     0  01:42        1.77
  WS02006112           JUNCTION     2.06     2.23     8.35     0  03:27        2.22
  WS02006113           JUNCTION     1.60     1.79     8.38     0  01:42        1.77
  WS02006115           JUNCTION     2.07     2.24     8.34     0  03:27        2.24
  WS02006116           JUNCTION     2.13     2.30     8.34     0  03:27        2.30
  WS02006183           JUNCTION     0.00     0.00     0.00     0  00:00        0.00
  WS02006228           JUNCTION     1.55     1.78     8.43     0  01:42        1.72
  WS02006229           JUNCTION     1.51     1.75     8.44     0  01:42        1.69
  WS02006230           JUNCTION     1.46     1.70     8.45     0  01:42        1.64
  WS02006231           JUNCTION     1.31     1.60     8.50     0  01:42        1.48
  WS02006232           JUNCTION     1.19     1.52     8.55     0  01:42        1.35
  WS02006234           JUNCTION     1.07     1.44     8.60     0  01:42        1.23
  WS02006235           JUNCTION     1.07     1.45     8.62     0  01:42        1.25
  WS02006238           JUNCTION     1.06     1.43     8.61     0  01:42        1.24
  WS02006239           JUNCTION     1.03     1.36     8.57     0  01:42        1.18
  WS02006242           JUNCTION     0.95     1.40     8.70     0  01:41        1.09
  WS02006240           JUNCTION     0.95     1.34     8.63     0  01:42        1.10
  WS02006243           JUNCTION     0.84     1.48     8.90     0  01:41        0.97
  WS02006245           JUNCTION     0.77     1.32     8.81     0  01:42        0.91
  WS02006247           JUNCTION     0.76     1.07     8.58     0  01:42        0.89
  WS02006248           JUNCTION     0.68     0.81     8.40     0  03:20        0.81
  WS02006249           JUNCTION     0.68     1.09     8.69     0  01:42        0.84
  WS02006251           JUNCTION     0.63     1.08     8.75     0  03:30        0.84
  WS02006253           JUNCTION     0.52     0.76     8.56     0  03:19        0.75
  WS02618401           JUNCTION     0.00     0.00     0.00     0  00:00        0.00
  WSA1649              JUNCTION     0.00     0.00     0.00     0  00:00        0.00
  outfall-5            OUTFALL      0.12     0.21     7.88     0  03:20        0.21
  outfall-14           OUTFALL      0.10     0.14     7.80     0  03:23        0.14
  outfall-16           OUTFALL      0.00     0.00     8.39     0  00:00        0.00
  CC-storage           STORAGE      2.33     5.63     8.81     0  02:19        5.63
  
  
  *******************
  Node Inflow Summary
  *******************
  
  -------------------------------------------------------------------------------------------------
                                  Maximum  Maximum                  Lateral       Total        Flow
                                  Lateral    Total  Time of Max      Inflow      Inflow     Balance
                                   Inflow   Inflow   Occurrence      Volume      Volume       Error
  Node                 Type           MLD      MLD  days hr:min    10^6 ltr    10^6 ltr     Percent
  -------------------------------------------------------------------------------------------------
  WS01000070           JUNCTION      0.00     0.00     0  00:00           0           0       0.000 ltr
  WS01000323           JUNCTION      0.00     0.00     0  00:00           0           0       0.000 ltr
  WS01000533           JUNCTION      0.00     0.00     0  00:00           0           0       0.000 ltr
  WS01005172           JUNCTION      0.00     0.00     0  00:00           0           0       0.000 ltr
  WS01005181           JUNCTION      0.00     0.00     0  00:00           0           0       0.000 ltr
  WS01009841           JUNCTION      0.00     0.00     0  00:00           0           0       0.000 ltr
  WS02000078           JUNCTION      0.00     0.00     0  00:00           0           0       0.000 ltr
  WS02000112           JUNCTION      0.00     0.00     0  00:00           0           0       0.000 ltr
  WS02000136           JUNCTION      0.00     0.00     0  00:00           0           0       0.000 ltr
  WS02004053           JUNCTION      0.00     0.00     0  00:00           0           0       0.000 ltr
  WS02004401           JUNCTION      0.05    19.30     0  03:23      0.0086        1.16       2.519
  WS02005192           JUNCTION      7.59     7.59     0  03:01       0.301       0.305       0.907
  WS02005193           JUNCTION      0.09    11.76     0  01:44       0.014       0.336       2.322
  WS02005196           JUNCTION      0.12     8.09     0  01:43      0.0183       0.324       2.193
  WS02006109           JUNCTION      0.08    16.02     0  03:26      0.0129       0.907       2.707
  WS02006110           JUNCTION      0.08    16.09     0  03:26      0.0126       0.898       2.784
  WS02006111           JUNCTION      0.24    18.83     0  03:23      0.0352         1.2       1.721
  WS02006112           JUNCTION      0.18    18.98     0  03:23      0.0263        1.21       2.742
  WS02006113           JUNCTION      7.77    18.64     0  03:23       0.315        1.19       2.009
  WS02006115           JUNCTION      0.08    19.05     0  03:23      0.0129        1.19       3.211
  WS02006116           JUNCTION      0.24    19.25     0  03:23      0.0347        1.19       2.898
  WS02006183           JUNCTION      0.00     0.00     0  00:00           0           0       0.000 ltr
  WS02006228           JUNCTION     11.08    15.94     0  03:26       0.539       0.928       1.944
  WS02006229           JUNCTION      0.13    10.92     0  01:43      0.0193       0.423       3.787
  WS02006230           JUNCTION      0.07    13.12     0  01:42      0.0111       0.431       6.370
  WS02006231           JUNCTION      0.13    13.01     0  01:42      0.0197       0.438       3.460
  WS02006232           JUNCTION      5.50    15.73     0  01:39       0.215        0.54       2.868
  WS02006234           JUNCTION      0.14    19.25     0  01:39      0.0208       0.447       3.185
  WS02006235           JUNCTION      0.14    20.75     0  01:39      0.0215       0.444       1.789
  WS02006238           JUNCTION      0.15    22.95     0  01:39      0.0226       0.444       2.353
  WS02006239           JUNCTION      0.11    26.40     0  01:40      0.0167       0.447       3.340
  WS02006242           JUNCTION      0.08    34.01     0  01:41      0.0124       0.468       3.933
  WS02006240           JUNCTION      0.06    29.89     0  01:40     0.00952       0.454       3.868
  WS02006243           JUNCTION      0.17    34.51     0  01:41      0.0259       0.483       3.604
  WS02006245           JUNCTION      0.07    34.84     0  01:41      0.0109        0.48       2.765
  WS02006247           JUNCTION      4.99    35.29     0  01:41       0.231       0.624       1.826
  WS02006248           JUNCTION      0.12    40.86     0  03:20      0.0185        1.93       0.559
  WS02006249           JUNCTION      0.19    39.71     0  02:36      0.0275        1.63       0.895
  WS02006251           JUNCTION      2.54    39.55     0  02:36       0.102        1.61       0.921
  WS02006253           JUNCTION      0.11    38.45     0  02:36      0.0166        1.53       0.504
  WS02618401           JUNCTION      0.00     0.00     0  00:00           0           0       0.000 ltr
  WSA1649              JUNCTION      0.00     0.00     0  00:00           0           0       0.000 ltr
  outfall-5            OUTFALL       0.00    40.89     0  03:20           0        1.69       0.000
  outfall-14           OUTFALL       0.00    19.30     0  03:23           0        1.13       0.000
  outfall-16           OUTFALL       0.00     0.00     0  00:00           0           0       0.000 ltr
  CC-storage           STORAGE      23.02    23.02     0  03:01        1.14        1.14     -15.521
  
  
  **********************
  Node Surcharge Summary
  **********************
  
  Surcharging occurs when water rises above the top of the highest conduit.
  ---------------------------------------------------------------------
                                               Max. Height   Min. Depth
                                   Hours       Above Crown    Below Rim
  Node                 Type      Surcharged         Meters       Meters
  ---------------------------------------------------------------------
  WS01000070           JUNCTION        3.83          0.000        0.000
  WS01000323           JUNCTION        3.83          0.000        0.000
  WS01000533           JUNCTION        3.83          0.000        2.147
  WS01005172           JUNCTION        3.83          0.000        0.000
  WS01005181           JUNCTION        3.83          0.000        0.000
  WS01009841           JUNCTION        3.83          0.000        0.000
  WS02000078           JUNCTION        3.83          0.000        0.000
  WS02000112           JUNCTION        3.83          0.000        0.000
  WS02000136           JUNCTION        3.83          0.000        0.000
  WS02004053           JUNCTION        3.83          0.000        0.000
  WS02005192           JUNCTION        0.33          0.388        2.431
  WS02005193           JUNCTION        0.45          0.308        2.309
  WS02005196           JUNCTION        0.40          0.479        2.227
  WS02006109           JUNCTION        2.19          0.990        0.848
  WS02006110           JUNCTION        2.19          0.995        0.850
  WS02006111           JUNCTION        2.19          0.976        0.901
  WS02006112           JUNCTION        2.42          1.229        0.454
  WS02006113           JUNCTION        2.19          0.987        0.946
  WS02006115           JUNCTION        2.44          1.244        1.055
  WS02006116           JUNCTION        2.52          1.305        1.045
  WS02006183           JUNCTION        3.83          0.000        0.000
  WS02006228           JUNCTION        2.19          0.983        1.248
  WS02006229           JUNCTION        2.19          0.950        1.504
  WS02006231           JUNCTION        2.18          0.896        0.647
  WS02006232           JUNCTION        2.16          0.819        0.670
  WS02006234           JUNCTION        2.16          0.737        0.520
  WS02006235           JUNCTION        2.16          0.747        0.547
  WS02006238           JUNCTION        2.16          0.733        0.701
  WS02006239           JUNCTION        2.15          0.657        0.672
  WS02006242           JUNCTION        2.15          0.695        0.154
  WS02006240           JUNCTION        2.15          0.639        0.764
  WS02006243           JUNCTION        2.14          0.780        0.000
  WS02006245           JUNCTION        2.13          0.623        0.232
  WS02006247           JUNCTION        2.13          0.375        0.385
  WS02006249           JUNCTION        1.50          0.388        0.000
  WS02006251           JUNCTION        0.61          0.382        1.128
  WS02006253           JUNCTION        0.27          0.056        2.398
  WS02618401           JUNCTION        3.83          0.000        0.000
  WSA1649              JUNCTION        3.83          0.000        0.000
  
  
  *********************
  Node Flooding Summary
  *********************
  
  Flooding refers to all water that overflows a node, whether it ponds or not.
  --------------------------------------------------------------------------
                                                             Total   Maximum
                                 Maximum   Time of Max       Flood    Ponded
                        Hours       Rate    Occurrence      Volume     Depth
  Node                 Flooded       MLD   days hr:min    10^6 ltr    Meters
  --------------------------------------------------------------------------
  WS02006243              0.01     18.29      0  01:41       0.000     0.000
  WS02006249              0.01      9.74      0  01:42       0.000     0.000
  CC-storage              0.28     23.01      0  03:01       0.163     0.000
  
  
  **********************
  Storage Volume Summary
  **********************
  
  --------------------------------------------------------------------------------------------------
                         Average     Avg  Evap Exfil       Maximum     Max    Time of Max    Maximum
                          Volume    Pcnt  Pcnt  Pcnt        Volume    Pcnt     Occurrence    Outflow
  Storage Unit           1000 m3    Full  Loss  Loss       1000 m3    Full    days hr:min        MLD
  --------------------------------------------------------------------------------------------------
  CC-storage               0.066      41     0     0         0.159     100       0  02:19      34.56
  
  
  ***********************
  Outfall Loading Summary
  ***********************
  
  ---------------------------------------------------------------------------------------------------------------------------------
                         Flow       Avg       Max       Total         Total         Total         Total         Total         Total
                         Freq      Flow      Flow      Volume           COD         NH3-N            TN            TP            SS
  Outfall Node           Pcnt       MLD       MLD    10^6 ltr            kg            kg            kg            kg            kg
  ---------------------------------------------------------------------------------------------------------------------------------
  outfall-5             90.75     20.42     40.89       1.692       215.223         0.000         0.000         0.000         0.000
  outfall-14            90.81     13.33     19.30       1.127       185.189         0.000         0.000         0.000         0.000
  outfall-16             0.00      0.00      0.00       0.000         0.000         0.000         0.000         0.000         0.000
  ---------------------------------------------------------------------------------------------------------------------------------
  System                60.52     33.75     59.04       2.819       400.412         0.000         0.000         0.000         0.000
  
  
  ********************
  Link Flow Summary
  ********************
  
  -----------------------------------------------------------------------------
                                 Maximum  Time of Max   Maximum    Max/    Max/
                                  |Flow|   Occurrence   |Veloc|    Full    Full
  Link                 Type          MLD  days hr:min     m/sec    Flow   Depth
  -----------------------------------------------------------------------------
  WSL2038              CONDUIT      7.70     0  01:46      0.42    0.38    1.00
  WSL2039              CONDUIT     12.20     0  03:26      0.62    0.63    1.00
  WSL2041              CONDUIT      9.75     0  03:27      0.47    0.48    1.00
  WSL2294              CONDUIT     16.02     0  03:26      0.43    0.54    1.00
  WSL2295              CONDUIT     16.09     0  03:26      0.50    0.72    1.00
  WSL2296              CONDUIT     18.83     0  03:23      0.63    0.11    1.00
  WSL2297              CONDUIT     18.98     0  03:23      0.34    0.36    1.00
  WSL2298              CONDUIT     18.64     0  03:23      0.87    0.86    1.00
  WSL2301              CONDUIT     19.05     0  03:23      0.29    0.18    1.00
  WSL2302              CONDUIT     19.25     0  03:23      0.28    0.24    1.00
  WSL2441              CONDUIT     15.94     0  03:26      0.44    0.41    1.00
  WSL2442              CONDUIT     10.80     0  01:43      0.63    0.28    1.00
  WSL2443              CONDUIT     13.05     0  01:42      0.73    0.20    1.00
  WSL2444              CONDUIT     12.87     0  01:42      0.89    0.20    1.00
  WSL2446              CONDUIT     14.78     0  01:39      0.85    0.25    1.00
  WSL2447              CONDUIT     19.12     0  01:39      1.02    0.98    1.00
  WSL2448              CONDUIT     20.61     0  01:39      1.03    0.58    1.00
  WSL2449              CONDUIT     22.80     0  01:39      1.07    0.80    1.00
  WSL2450              CONDUIT     26.29     0  01:40      1.19    0.55    1.00
  WSL2451              CONDUIT     29.83     0  01:40      1.22    1.94    1.00
  WSL2452              CONDUIT     33.93     0  01:41      1.31    0.65    1.00
  WSL2454              CONDUIT     34.34     0  01:41      1.47    0.80    1.00
  WSL2478              CONDUIT     34.77     0  01:41      1.41    1.23    1.00
  WSL2479              CONDUIT     34.57     0  01:41      1.41    0.66    1.00
  WSL2480              CONDUIT     39.71     0  02:36      1.42    1.84    1.00
  WSL2482              CONDUIT     39.55     0  02:36      1.36    1.03    1.00
  WSL2484              CONDUIT     38.45     0  02:36      1.51    0.54    1.00
  WSL2493              CONDUIT     10.94     0  01:43      0.51    0.18    1.00
  8                    CONDUIT     40.89     0  03:20      7.11    0.54    0.52
  19                   CONDUIT      0.00     0  00:00      0.00    0.00    0.00
  17                   CONDUIT     19.30     0  03:23      5.90    0.25    0.34
  CC-Pump-1            PUMP        17.28     0  02:30              1.00
  CC-Pump-2            PUMP        17.28     0  02:30              1.00
  
  
  ***************************
  Flow Classification Summary
  ***************************
  
  -------------------------------------------------------------------------------------
                      Adjusted    ---------- Fraction of Time in Flow Class ---------- 
                       /Actual         Up    Down  Sub   Sup   Up    Down  Norm  Inlet 
  Conduit               Length    Dry  Dry   Dry   Crit  Crit  Crit  Crit  Ltd   Ctrl  
  -------------------------------------------------------------------------------------
  WSL2038                 1.00   0.00  0.00  0.00  1.00  0.00  0.00  0.00  0.01  0.00
  WSL2039                 1.00   0.00  0.00  0.00  1.00  0.00  0.00  0.00  0.00  0.00
  WSL2041                 1.00   0.00  0.00  0.00  1.00  0.00  0.00  0.00  0.32  0.00
  WSL2294                 1.00   0.00  0.00  0.00  1.00  0.00  0.00  0.00  0.00  0.00
  WSL2295                 1.00   0.00  0.00  0.00  1.00  0.00  0.00  0.00  0.00  0.00
  WSL2296                 1.00   0.00  0.00  0.00  1.00  0.00  0.00  0.00  0.17  0.00
  WSL2297                 1.00   0.00  0.00  0.00  1.00  0.00  0.00  0.00  0.00  0.00
  WSL2298                 1.00   0.00  0.00  0.00  0.98  0.02  0.00  0.00  0.00  0.00
  WSL2301                 1.00   0.00  0.00  0.00  1.00  0.00  0.00  0.00  0.04  0.00
  WSL2302                 1.00   0.00  0.00  0.00  1.00  0.00  0.00  0.00  0.01  0.00
  WSL2441                 1.00   0.00  0.00  0.00  1.00  0.00  0.00  0.00  0.00  0.00
  WSL2442                 1.00   0.00  0.00  0.00  1.00  0.00  0.00  0.00  0.17  0.00
  WSL2443                 1.00   0.00  0.00  0.00  1.00  0.00  0.00  0.00  0.31  0.00
  WSL2444                 1.00   0.00  0.00  0.00  0.94  0.06  0.00  0.00  0.24  0.00
  WSL2446                 1.00   0.00  0.00  0.00  0.93  0.07  0.00  0.00  0.03  0.00
  WSL2447                 1.00   0.00  0.00  0.00  1.00  0.00  0.00  0.00  0.00  0.00
  WSL2448                 1.00   0.00  0.00  0.00  1.00  0.00  0.00  0.00  0.00  0.00
  WSL2449                 1.00   0.00  0.00  0.00  1.00  0.00  0.00  0.00  0.02  0.00
  WSL2450                 1.00   0.00  0.00  0.00  1.00  0.00  0.00  0.00  0.41  0.00
  WSL2451                 1.00   0.00  0.00  0.00  1.00  0.00  0.00  0.00  0.00  0.00
  WSL2452                 1.00   0.00  0.00  0.00  1.00  0.00  0.00  0.00  0.39  0.00
  WSL2454                 1.00   0.00  0.00  0.00  1.00  0.00  0.00  0.00  0.01  0.00
  WSL2478                 1.00   0.00  0.00  0.00  1.00  0.00  0.00  0.00  0.00  0.00
  WSL2479                 1.00   0.00  0.00  0.00  1.00  0.00  0.00  0.00  0.40  0.00
  WSL2480                 1.00   0.00  0.00  0.00  1.00  0.00  0.00  0.00  0.00  0.00
  WSL2482                 1.00   0.00  0.00  0.00  1.00  0.00  0.00  0.00  0.39  0.00
  WSL2484                 1.00   0.00  0.00  0.00  1.00  0.00  0.00  0.00  0.38  0.00
  WSL2493                 1.00   0.00  0.00  0.00  1.00  0.00  0.00  0.00  0.05  0.00
  8                       1.00   0.09  0.00  0.00  0.00  0.91  0.00  0.00  0.12  0.00
  19                      1.00   1.00  0.00  0.00  0.00  0.00  0.00  0.00  0.00  0.00
  17                      1.00   0.09  0.00  0.00  0.00  0.91  0.00  0.00  0.03  0.00
  
  
  *************************
  Conduit Surcharge Summary
  *************************
  
  ----------------------------------------------------------------------------
                                                           Hours        Hours 
                         --------- Hours Full --------   Above Full   Capacity
  Conduit                Both Ends  Upstream  Dnstream   Normal Flow   Limited
  ----------------------------------------------------------------------------
  WSL2038                     0.33      0.33      0.40      0.01         0.01
  WSL2039                     0.45      0.45      0.51      0.01         0.01
  WSL2041                     0.40      0.40      0.45      0.01         0.01
  WSL2294                     2.19      2.19      2.19      0.01         0.01
  WSL2295                     2.19      2.19      2.19      0.01         0.03
  WSL2296                     2.19      2.19      2.74      0.01         0.01
  WSL2297                     2.42      2.42      2.44      0.01         0.01
  WSL2298                     2.19      2.19      2.19      0.01         0.03
  WSL2301                     2.44      2.44      2.52      0.01         0.01
  WSL2302                     2.52      2.52      2.60      0.01         0.01
  WSL2441                     2.19      2.19      2.19      0.01         0.01
  WSL2442                     2.19      2.19      2.20      0.01         0.01
  WSL2443                     2.18      2.18      2.19      0.01         0.01
  WSL2444                     2.16      2.16      2.18      0.01         0.01
  WSL2446                     2.16      2.16      2.16      0.01         0.01
  WSL2447                     2.16      2.16      2.16      0.01         0.01
  WSL2448                     2.16      2.16      2.16      0.01         0.01
  WSL2449                     2.15      2.15      2.16      0.01         0.01
  WSL2450                     2.15      2.15      2.15      0.01         0.01
  WSL2451                     2.15      2.15      2.15      0.06         0.01
  WSL2452                     2.14      2.14      2.15      0.01         0.01
  WSL2454                     2.13      2.13      2.14      0.01         0.01
  WSL2478                     2.13      2.13      2.13      0.04         0.01
  WSL2479                     1.54      1.54      2.13      0.01         0.01
  WSL2480                     1.50      1.50      1.54      0.65         0.61
  WSL2482                     0.61      0.61      1.50      0.19         0.19
  WSL2484                     0.27      0.27      0.61      0.01         0.01
  WSL2493                     2.19      2.19      2.19      0.01         0.01
  
  
  ***************
  Pumping Summary
  ***************
  
  ---------------------------------------------------------------------------------------------------------
                                                  Min       Avg       Max     Total     Power    % Time Off
                        Percent   Number of      Flow      Flow      Flow    Volume     Usage    Pump Curve
  Pump                 Utilized   Start-Ups       MLD       MLD       MLD  10^6 ltr     Kw-hr    Low   High
  ---------------------------------------------------------------------------------------------------------
  CC-Pump-1               39.11           3      0.00      9.80     17.28     0.594      5.52    0.0    0.0
  CC-Pump-2               39.11           3      0.00      9.80     17.28     0.594      5.52    0.0    0.0
  
  
  ***************************
  Link Pollutant Load Summary
  ***************************
  
  ------------------------------------------------------------------------------------------
                                 COD         NH3-N            TN            TP            SS
  Link                            kg            kg            kg            kg            kg
  ------------------------------------------------------------------------------------------
  WSL2038                     52.473         0.000         0.000         0.000         0.000
  WSL2039                     57.265         0.000         0.000         0.000         0.000
  WSL2041                     55.012         0.000         0.000         0.000         0.000
  WSL2294                    200.785         0.000         0.000         0.000         0.000
  WSL2295                    197.111         0.000         0.000         0.000         0.000
  WSL2296                    199.288         0.000         0.000         0.000         0.000
  WSL2297                    196.117         0.000         0.000         0.000         0.000
  WSL2298                    196.373         0.000         0.000         0.000         0.000
  WSL2301                    192.519         0.000         0.000         0.000         0.000
  WSL2302                    190.537         0.000         0.000         0.000         0.000
  WSL2441                    204.117         0.000         0.000         0.000         0.000
  WSL2442                     43.192         0.000         0.000         0.000         0.000
  WSL2443                     41.230         0.000         0.000         0.000         0.000
  WSL2444                     38.365         0.000         0.000         0.000         0.000
  WSL2446                     40.780         0.000         0.000         0.000         0.000
  WSL2447                     45.601         0.000         0.000         0.000         0.000
  WSL2448                     47.060         0.000         0.000         0.000         0.000
  WSL2449                     49.231         0.000         0.000         0.000         0.000
  WSL2450                     52.956         0.000         0.000         0.000         0.000
  WSL2451                     56.974         0.000         0.000         0.000         0.000
  WSL2452                     60.503         0.000         0.000         0.000         0.000
  WSL2454                     62.311         0.000         0.000         0.000         0.000
  WSL2478                     64.147         0.000         0.000         0.000         0.000
  WSL2479                     73.743         0.000         0.000         0.000         0.000
  WSL2480                    204.503         0.000         0.000         0.000         0.000
  WSL2482                    200.904         0.000         0.000         0.000         0.000
  WSL2484                    171.400         0.000         0.000         0.000         0.000
  WSL2493                     48.773         0.000         0.000         0.000         0.000
  8                          215.223         0.000         0.000         0.000         0.000
  19                           0.000         0.000         0.000         0.000         0.000
  17                         185.189         0.000         0.000         0.000         0.000
  CC-Pump-1                   56.141         0.000         0.000         0.000         0.000
  CC-Pump-2                   56.141         0.000         0.000         0.000         0.000
  

  Analysis begun on:  Fri Aug 23 09:51:18 2019
  Analysis ended on:  Fri Aug 23 09:51:18 2019
  Total elapsed time: < 1 sec