
  EPA STORM WATER MANAGEMENT MODEL - VERSION 5.1 (Build 5.2.0.dev5)
  --------------------------------------------------------------

  
  *********************************************************
  NOTE: The summary statistics displayed in this report are
  based on results found at every computational time step,  
  not just on results from each reporting time step.
  *********************************************************
  
  ****************
  Analysis Options
  ****************
  Flow Units ............... MLD
  Process Models:
    Rainfall/Runoff ........ YES
    RDII ................... NO
    Snowmelt ............... NO
    Groundwater ............ NO
    Flow Routing ........... YES
    Ponding Allowed ........ NO
    Water Quality .......... YES
  Infiltration Method ...... GREEN_AMPT
  Flow Routing Method ...... DYNWAVE
  Surcharge Method ......... EXTRAN
  Starting Date ............ 08/28/2015 08:00:00
  Ending Date .............. 08/28/2015 11:50:00
  Antecedent Dry Days ...... 4.0
  Report Time Step ......... 00:01:00
  Wet Time Step ............ 00:01:00
  Dry Time Step ............ 00:01:00
  Routing Time Step ........ 5.00 sec
  Variable Time Step ....... YES
  Maximum Trials ........... 8
  Number of Threads ........ 1
  Head Tolerance ........... 0.001500 m
  
  
  **************************        Volume         Depth
  Runoff Quantity Continuity     hectare-m            mm
  **************************     ---------       -------
  Total Precipitation ......         1.737        28.073
  Evaporation Loss .........         0.000         0.000
  Infiltration Loss ........         0.604         9.760
  Surface Runoff ...........         0.485         7.845
  Final Storage ............         0.648        10.468
  Continuity Error (%) .....        -0.004
  
  
  **************************           COD         NH3-N            TN            TP            SS
  Runoff Quality Continuity             kg            kg            kg            kg            kg
  **************************    ----------    ----------    ----------    ----------    ----------
  Initial Buildup ..........      2504.640         0.000         0.000         0.000         0.000
  Surface Buildup ..........        19.498         0.000         0.000         0.000         0.000
  Wet Deposition ...........         0.000         0.000         0.000         0.000         0.000
  Sweeping Removal .........         0.000         0.000         0.000         0.000         0.000
  Infiltration Loss ........       170.005         0.000         0.000         0.000         0.000
  BMP Removal ..............         0.000         0.000         0.000         0.000         0.000
  Surface Runoff ...........       985.981         0.000         0.000         0.000         0.000
  Remaining Buildup ........      1366.923         0.000         0.000         0.000         0.000
  Continuity Error (%) .....         0.049         0.000         0.000         0.000         0.000
  
  
  **************************        Volume        Volume
  Flow Routing Continuity        hectare-m      10^6 ltr
  **************************     ---------     ---------
  Dry Weather Inflow .......         0.000         0.000
  Wet Weather Inflow .......         0.484         4.842
  Groundwater Inflow .......         0.000         0.000
  RDII Inflow ..............         0.000         0.000
  External Inflow ..........         0.082         0.822
  External Outflow .........         0.475         4.746
  Flooding Loss ............         0.036         0.357
  Evaporation Loss .........         0.000         0.000
  Exfiltration Loss ........         0.000         0.000
  Initial Stored Volume ....         0.000         0.000
  Final Stored Volume ......         0.062         0.623
  Continuity Error (%) .....        -1.074
  
  
  **************************           COD         NH3-N            TN            TP            SS
  Quality Routing Continuity            kg            kg            kg            kg            kg
  **************************    ----------    ----------    ----------    ----------    ----------
  Dry Weather Inflow .......         0.000         0.000         0.000         0.000         0.000
  Wet Weather Inflow .......       984.615         0.000         0.000         0.000         0.000
  Groundwater Inflow .......         0.000         0.000         0.000         0.000         0.000
  RDII Inflow ..............         0.000         0.000         0.000         0.000         0.000
  External Inflow ..........       137.263         0.000         0.000         0.000         0.000
  External Outflow .........       931.969         0.000         0.000         0.000         0.000
  Flooding Loss ............        86.307         0.000         0.000         0.000         0.000
  Exfiltration Loss ........         0.000         0.000         0.000         0.000         0.000
  Mass Reacted .............         0.000         0.000         0.000         0.000         0.000
  Initial Stored Mass ......         0.000         0.000         0.000         0.000         0.000
  Final Stored Mass ........        82.915         0.000         0.000         0.000         0.000
  Continuity Error (%) .....         1.844         0.000         0.000         0.000         0.000
  
  
  *************************
  Highest Continuity Errors
  *************************
  Node WS02006230 (6.04%)
  Node WS02006229 (3.70%)
  Node WS02006231 (3.27%)
  Node WS02006242 (3.05%)
  Node WS02006240 (2.77%)
  
  
  ***************************
  Time-Step Critical Elements
  ***************************
  Link 8 (86.40%)
  Link WSL2448 (6.44%)
  Link 17 (6.03%)
  
  
  ********************************
  Highest Flow Instability Indexes
  ********************************
  Link WSL2302 (2)
  Link WSL2301 (2)
  Link WSL2297 (1)
  Link WSL2296 (1)
  
  
  *************************
  Routing Time Step Summary
  *************************
  Minimum Time Step           :     0.50 sec
  Average Time Step           :     0.84 sec
  Maximum Time Step           :     5.00 sec
  Percent in Steady State     :    -0.00
  Average Iterations per Step :     2.09
  Percent Not Converging      :     1.16
  
  
  ***************************
  Subcatchment Runoff Summary
  ***************************
  
  ------------------------------------------------------------------------------------------------------------------------------
                            Total      Total      Total      Total     Imperv       Perv      Total       Total     Peak  Runoff
                           Precip      Runon       Evap      Infil     Runoff     Runoff     Runoff      Runoff   Runoff   Coeff
  Subcatchment                 mm         mm         mm         mm         mm         mm         mm    10^6 ltr      MLD
  ------------------------------------------------------------------------------------------------------------------------------
  1                         28.07      42.56       0.00      11.75      16.91      22.89      39.80        0.48     7.49   0.563
  2                         28.07       0.00       0.00       9.18       6.80       4.40      11.21        0.38     6.62   0.399
  3                         28.07       0.00       0.00       9.27       6.74       3.78      10.52        0.54     9.41   0.375
  35                        28.07       0.00       0.00       9.15       6.82       4.58      11.39        0.35     6.05   0.406
  36                        28.07      23.34       0.00      11.42      12.03       9.25      21.28        1.26    18.45   0.414
  40                        28.07       6.04       0.00       9.84       8.17       5.73      13.89        0.54     8.91   0.407
  41                        28.07       0.00       0.00       9.03       6.86       5.33      12.20        0.24     4.15   0.434
  42                        28.07       0.00       0.00       9.08       6.85       5.05      11.90        0.27     4.76   0.424
  43                        28.07       0.00       0.00       8.43       6.96       8.55      15.51        0.06     1.02   0.553
  44                        28.07     352.53       0.00      18.28      93.44     222.85     316.28        1.17    19.01   0.831
  45                        28.07       0.00       0.00       8.83       6.91       6.50      13.42        0.14     2.44   0.478
  46                        28.07      19.67       0.00      10.76      11.44      11.64      23.08        0.49     7.36   0.484
  47                        28.07       0.00       0.00       8.86       6.91       6.36      13.27        0.15     2.60   0.473
  48                        28.07       9.30       0.00       9.83       9.06       8.92      17.98        0.28     4.54   0.481
  55                        28.07      13.95       0.00       9.92      10.25      12.71      22.96        0.19     3.01   0.546
  56                        28.07      21.51       0.00      10.89      11.88      12.31      24.19        0.52     7.70   0.488
  57                        28.07       0.00       0.00       9.27       6.75       3.80      10.55        0.53     9.25   0.376
  59                        28.07       0.00       0.00       8.76       6.92       6.90      13.82        0.12     2.06   0.492
  60                        28.07      30.19       0.00      10.69      14.23      22.39      36.62        0.19     3.01   0.628
  61                        28.07       0.00       0.00       9.49       6.46       2.26       8.72        1.57    27.39   0.310
  64                        28.07       0.00       0.00       8.88       6.90       6.21      13.12        0.16     2.77   0.467
  
  
  ****************************
  Subcatchment Washoff Summary
  ****************************
  
  ------------------------------------------------------------------------------------------
                                 COD         NH3-N            TN            TP            SS
  Subcatchment                    kg            kg            kg            kg            kg
  ------------------------------------------------------------------------------------------
  1                           90.186         0.000         0.000         0.000         0.000
  2                            0.000         0.000         0.000         0.000         0.000
  3                            0.000         0.000         0.000         0.000         0.000
  35                          79.954         0.000         0.000         0.000         0.000
  36                         410.495         0.000         0.000         0.000         0.000
  40                         149.170         0.000         0.000         0.000         0.000
  41                          55.502         0.000         0.000         0.000         0.000
  42                          63.378         0.000         0.000         0.000         0.000
  43                          13.209         0.000         0.000         0.000         0.000
  44                         388.521         0.000         0.000         0.000         0.000
  45                          32.760         0.000         0.000         0.000         0.000
  46                         150.250         0.000         0.000         0.000         0.000
  47                          34.889         0.000         0.000         0.000         0.000
  48                          79.930         0.000         0.000         0.000         0.000
  55                          52.477         0.000         0.000         0.000         0.000
  56                         152.483         0.000         0.000         0.000         0.000
  57                         120.018         0.000         0.000         0.000         0.000
  59                          27.565         0.000         0.000         0.000         0.000
  60                          49.469         0.000         0.000         0.000         0.000
  61                         334.780         0.000         0.000         0.000         0.000
  64                          37.247         0.000         0.000         0.000         0.000
  ------------------------------------------------------------------------------------------
  System                    2322.284         0.000         0.000         0.000         0.000
  
  
  ******************
  Node Depth Summary
  ******************
  
  ---------------------------------------------------------------------------------
                                 Average  Maximum  Maximum  Time of Max    Reported
                                   Depth    Depth      HGL   Occurrence   Max Depth
  Node                 Type       Meters   Meters   Meters  days hr:min      Meters
  ---------------------------------------------------------------------------------
  WS01000070           JUNCTION     0.00     0.00     0.00     0  00:00        0.00
  WS01000323           JUNCTION     0.00     0.00     0.00     0  00:00        0.00
  WS01000533           JUNCTION     0.00     0.00     6.86     0  00:00        0.00
  WS01005172           JUNCTION     0.00     0.00     0.00     0  00:00        0.00
  WS01005181           JUNCTION     0.00     0.00     0.00     0  00:00        0.00
  WS01009841           JUNCTION     0.00     0.00     0.00     0  00:00        0.00
  WS02000078           JUNCTION     0.00     0.00     0.00     0  00:00        0.00
  WS02000112           JUNCTION     0.00     0.00     0.00     0  00:00        0.00
  WS02000136           JUNCTION     0.00     0.00     0.00     0  00:00        0.00
  WS02004053           JUNCTION     0.00     0.00     0.00     0  00:00        0.00
  WS02004401           JUNCTION     2.22     2.37     8.37     0  02:56        2.37
  WS02005192           JUNCTION     0.53     1.94     9.81     0  01:34        0.80
  WS02005193           JUNCTION     0.58     2.17     9.99     0  01:35        0.84
  WS02005196           JUNCTION     0.55     0.90     8.75     0  01:35        0.81
  WS02006109           JUNCTION     1.64     1.89     8.51     0  01:32        1.82
  WS02006110           JUNCTION     1.66     1.92     8.52     0  01:32        1.83
  WS02006111           JUNCTION     1.66     1.90     8.48     0  01:32        1.82
  WS02006112           JUNCTION     2.11     2.32     8.44     0  01:32        2.27
  WS02006113           JUNCTION     1.66     1.92     8.51     0  01:32        1.83
  WS02006115           JUNCTION     2.12     2.29     8.39     0  03:00        2.28
  WS02006116           JUNCTION     2.18     2.34     8.38     0  03:00        2.34
  WS02006183           JUNCTION     0.00     0.00     0.00     0  00:00        0.00
  WS02006228           JUNCTION     1.62     1.84     8.49     0  01:32        1.80
  WS02006229           JUNCTION     1.58     1.77     8.46     0  01:32        1.76
  WS02006230           JUNCTION     1.52     1.70     8.45     0  02:53        1.70
  WS02006231           JUNCTION     1.38     1.58     8.48     0  01:33        1.55
  WS02006232           JUNCTION     1.26     1.74     8.77     0  01:30        1.42
  WS02006234           JUNCTION     1.13     1.39     8.55     0  01:33        1.29
  WS02006235           JUNCTION     1.13     1.39     8.56     0  01:33        1.28
  WS02006238           JUNCTION     1.12     1.38     8.56     0  01:33        1.27
  WS02006239           JUNCTION     1.09     1.31     8.52     0  01:33        1.24
  WS02006242           JUNCTION     1.00     1.46     8.76     0  01:32        1.33
  WS02006240           JUNCTION     1.01     1.44     8.73     0  01:32        1.41
  WS02006243           JUNCTION     0.89     1.48     8.90     0  01:32        1.04
  WS02006245           JUNCTION     0.82     1.23     8.72     0  01:33        0.97
  WS02006247           JUNCTION     0.81     1.19     8.70     0  01:33        0.95
  WS02006248           JUNCTION     0.73     0.86     8.45     0  02:50        0.86
  WS02006249           JUNCTION     0.73     1.09     8.69     0  01:35        0.90
  WS02006251           JUNCTION     0.70     2.21     9.88     0  01:35        0.94
  WS02006253           JUNCTION     0.59     0.86     8.66     0  02:50        0.86
  WS02618401           JUNCTION     0.00     0.00     0.00     0  00:00        0.00
  WSA1649              JUNCTION     0.00     0.00     0.00     0  00:00        0.00
  outfall-5            OUTFALL      0.16     0.26     7.93     0  02:50        0.26
  outfall-14           OUTFALL      0.13     0.17     7.83     0  02:56        0.17
  outfall-16           OUTFALL      0.00     0.00     8.39     0  00:00        0.00
  CC-storage           STORAGE      3.33     5.63     8.81     0  01:59        5.63
  
  
  *******************
  Node Inflow Summary
  *******************
  
  -------------------------------------------------------------------------------------------------
                                  Maximum  Maximum                  Lateral       Total        Flow
                                  Lateral    Total  Time of Max      Inflow      Inflow     Balance
                                   Inflow   Inflow   Occurrence      Volume      Volume       Error
  Node                 Type           MLD      MLD  days hr:min    10^6 ltr    10^6 ltr     Percent
  -------------------------------------------------------------------------------------------------
  WS01000070           JUNCTION      0.00     0.00     0  00:00           0           0       0.000 ltr
  WS01000323           JUNCTION      0.00     0.00     0  00:00           0           0       0.000 ltr
  WS01000533           JUNCTION      0.00     0.00     0  00:00           0           0       0.000 ltr
  WS01005172           JUNCTION      0.00     0.00     0  00:00           0           0       0.000 ltr
  WS01005181           JUNCTION      0.00     0.00     0  00:00           0           0       0.000 ltr
  WS01009841           JUNCTION      0.00     0.00     0  00:00           0           0       0.000 ltr
  WS02000078           JUNCTION      0.00     0.00     0  00:00           0           0       0.000 ltr
  WS02000112           JUNCTION      0.00     0.00     0  00:00           0           0       0.000 ltr
  WS02000136           JUNCTION      0.00     0.00     0  00:00           0           0       0.000 ltr
  WS02004053           JUNCTION      0.00     0.00     0  00:00           0           0       0.000 ltr
  WS02004401           JUNCTION      0.05    30.04     0  02:56      0.0086        1.91       1.520
  WS02005192           JUNCTION      9.35    12.58     0  01:34       0.544       0.546       0.481
  WS02005193           JUNCTION      0.09    18.47     0  01:34       0.014       0.584       1.229
  WS02005196           JUNCTION      0.12    16.23     0  01:34      0.0183       0.568       1.205
  WS02006109           JUNCTION      0.08    22.06     0  03:00      0.0129        1.41       1.738
  WS02006110           JUNCTION      0.08    22.12     0  03:00      0.0126         1.4       1.777
  WS02006111           JUNCTION      0.24    29.54     0  02:56      0.0352        1.94       1.053
  WS02006112           JUNCTION      0.18    29.70     0  02:56      0.0263        1.95       1.657
  WS02006113           JUNCTION      9.56    29.33     0  02:56       0.561        1.93       1.226
  WS02006115           JUNCTION      0.08    29.78     0  02:56      0.0129        1.94       1.932
  WS02006116           JUNCTION      0.24    29.98     0  02:56      0.0347        1.94       1.734
  WS02006183           JUNCTION      0.00     0.00     0  00:00           0           0       0.000 ltr
  WS02006228           JUNCTION     19.17    21.99     0  03:00        1.19         1.5       1.197
  WS02006229           JUNCTION      0.13    15.05     0  01:29      0.0193       0.418       3.843
  WS02006230           JUNCTION      0.07    16.83     0  01:30      0.0111        0.43       6.428
  WS02006231           JUNCTION      0.13    21.61     0  01:30      0.0197       0.439       3.383
  WS02006232           JUNCTION      6.70    26.83     0  01:30        0.39       0.673       2.199
  WS02006234           JUNCTION      0.14    27.30     0  01:30      0.0208       0.541       2.533
  WS02006235           JUNCTION      0.14    27.50     0  01:30      0.0215       0.548       1.467
  WS02006238           JUNCTION      0.15    29.82     0  01:31      0.0226       0.558       1.852
  WS02006239           JUNCTION      0.11    34.00     0  01:31      0.0167        0.57       2.768
  WS02006242           JUNCTION      0.08    38.24     0  01:31      0.0124       0.603       3.147
  WS02006240           JUNCTION      0.06    34.43     0  01:31     0.00952       0.583       2.854
  WS02006243           JUNCTION      0.17    35.83     0  01:31      0.0259       0.628       2.781
  WS02006245           JUNCTION      0.07    35.82     0  01:31      0.0109       0.633       1.947
  WS02006247           JUNCTION      7.62    35.94     0  01:31       0.504        1.12       1.013
  WS02006248           JUNCTION      0.12    58.02     0  02:50      0.0185        3.09       0.342
  WS02006249           JUNCTION      0.19    47.32     0  02:20      0.0275         2.2       0.666
  WS02006251           JUNCTION      3.07    47.16     0  02:20         0.2        2.19       0.654
  WS02006253           JUNCTION      0.11    44.16     0  02:20      0.0166        2.01       0.365
  WS02618401           JUNCTION      0.00     0.00     0  00:00           0           0       0.000 ltr
  WSA1649              JUNCTION      0.00     0.00     0  00:00           0           0       0.000 ltr
  outfall-5            OUTFALL       0.00    58.05     0  02:50           0        2.87       0.000
  outfall-14           OUTFALL       0.00    30.04     0  02:56           0        1.87       0.000
  outfall-16           OUTFALL       0.00     0.00     0  00:00           0           0       0.000 ltr
  CC-storage           STORAGE      29.01    29.01     0  02:25        1.84        1.84      -4.762
  
  
  **********************
  Node Surcharge Summary
  **********************
  
  Surcharging occurs when water rises above the top of the highest conduit.
  ---------------------------------------------------------------------
                                               Max. Height   Min. Depth
                                   Hours       Above Crown    Below Rim
  Node                 Type      Surcharged         Meters       Meters
  ---------------------------------------------------------------------
  WS01000070           JUNCTION        3.83          0.000        0.000
  WS01000323           JUNCTION        3.83          0.000        0.000
  WS01000533           JUNCTION        3.83          0.000        2.147
  WS01005172           JUNCTION        3.83          0.000        0.000
  WS01005181           JUNCTION        3.83          0.000        0.000
  WS01009841           JUNCTION        3.83          0.000        0.000
  WS02000078           JUNCTION        3.83          0.000        0.000
  WS02000112           JUNCTION        3.83          0.000        0.000
  WS02000136           JUNCTION        3.83          0.000        0.000
  WS02004053           JUNCTION        3.83          0.000        0.000
  WS02005192           JUNCTION        0.81          1.340        1.479
  WS02005193           JUNCTION        0.93          1.575        1.042
  WS02005196           JUNCTION        0.86          0.302        2.404
  WS02006109           JUNCTION        2.34          1.093        0.745
  WS02006110           JUNCTION        2.34          1.123        0.722
  WS02006111           JUNCTION        2.34          1.100        0.777
  WS02006112           JUNCTION        2.46          1.320        0.363
  WS02006113           JUNCTION        2.34          1.123        0.810
  WS02006115           JUNCTION        2.48          1.285        1.014
  WS02006116           JUNCTION        2.55          1.340        1.010
  WS02006183           JUNCTION        3.83          0.000        0.000
  WS02006228           JUNCTION        2.33          1.037        1.194
  WS02006229           JUNCTION        2.33          0.971        1.483
  WS02006231           JUNCTION        2.32          0.876        0.667
  WS02006232           JUNCTION        2.31          1.040        0.449
  WS02006234           JUNCTION        2.31          0.686        0.571
  WS02006235           JUNCTION        2.31          0.695        0.599
  WS02006238           JUNCTION        2.31          0.683        0.751
  WS02006239           JUNCTION        2.31          0.614        0.715
  WS02006242           JUNCTION        2.30          0.760        0.089
  WS02006240           JUNCTION        2.30          0.743        0.660
  WS02006243           JUNCTION        2.30          0.780        0.000
  WS02006245           JUNCTION        2.29          0.529        0.326
  WS02006247           JUNCTION        2.29          0.487        0.273
  WS02006249           JUNCTION        1.93          0.388        0.000
  WS02006251           JUNCTION        1.17          1.510        0.000
  WS02006253           JUNCTION        0.73          0.158        2.296
  WS02618401           JUNCTION        3.83          0.000        0.000
  WSA1649              JUNCTION        3.83          0.000        0.000
  
  
  *********************
  Node Flooding Summary
  *********************
  
  Flooding refers to all water that overflows a node, whether it ponds or not.
  --------------------------------------------------------------------------
                                                             Total   Maximum
                                 Maximum   Time of Max       Flood    Ponded
                        Hours       Rate    Occurrence      Volume     Depth
  Node                 Flooded       MLD   days hr:min    10^6 ltr    Meters
  --------------------------------------------------------------------------
  WS02006243              0.01     21.68      0  01:32       0.000     0.000
  WS02006249              0.01      7.45      0  01:35       0.000     0.000
  WS02006251              0.01     15.01      0  01:35       0.000     0.000
  CC-storage              0.57     28.49      0  02:30       0.356     0.000
  
  
  **********************
  Storage Volume Summary
  **********************
  
  --------------------------------------------------------------------------------------------------
                         Average     Avg  Evap Exfil       Maximum     Max    Time of Max    Maximum
                          Volume    Pcnt  Pcnt  Pcnt        Volume    Pcnt     Occurrence    Outflow
  Storage Unit           1000 m3    Full  Loss  Loss       1000 m3    Full    days hr:min        MLD
  --------------------------------------------------------------------------------------------------
  CC-storage               0.094      59     0     0         0.159     100       0  01:59      34.56
  
  
  ***********************
  Outfall Loading Summary
  ***********************
  
  ---------------------------------------------------------------------------------------------------------------------------------
                         Flow       Avg       Max       Total         Total         Total         Total         Total         Total
                         Freq      Flow      Flow      Volume           COD         NH3-N            TN            TP            SS
  Outfall Node           Pcnt       MLD       MLD    10^6 ltr            kg            kg            kg            kg            kg
  ---------------------------------------------------------------------------------------------------------------------------------
  outfall-5             92.41     31.67     58.05       2.872       542.202         0.000         0.000         0.000         0.000
  outfall-14            92.46     20.39     30.04       1.873       389.784         0.000         0.000         0.000         0.000
  outfall-16             0.00      0.00      0.00       0.000         0.000         0.000         0.000         0.000         0.000
  ---------------------------------------------------------------------------------------------------------------------------------
  System                61.62     52.06     86.89       4.746       931.986         0.000         0.000         0.000         0.000
  
  
  ********************
  Link Flow Summary
  ********************
  
  -----------------------------------------------------------------------------
                                 Maximum  Time of Max   Maximum    Max/    Max/
                                  |Flow|   Occurrence   |Veloc|    Full    Full
  Link                 Type          MLD  days hr:min     m/sec    Flow   Depth
  -----------------------------------------------------------------------------
  WSL2038              CONDUIT     10.31     0  01:34      0.55    0.51    1.00
  WSL2039              CONDUIT     18.38     0  01:34      0.95    0.95    1.00
  WSL2041              CONDUIT     16.11     0  01:34      0.90    0.79    1.00
  WSL2294              CONDUIT     22.05     0  03:00      0.51    0.74    1.00
  WSL2295              CONDUIT     22.12     0  03:00      0.51    0.99    1.00
  WSL2296              CONDUIT     29.54     0  02:56      0.68    0.17    1.00
  WSL2297              CONDUIT     29.70     0  02:56      0.44    0.57    1.00
  WSL2298              CONDUIT     29.33     0  02:56      0.87    1.35    1.00
  WSL2301              CONDUIT     29.78     0  02:56      0.44    0.27    1.00
  WSL2302              CONDUIT     29.98     0  02:56      0.44    0.37    1.00
  WSL2441              CONDUIT     21.98     0  03:00      0.51    0.56    1.00
  WSL2442              CONDUIT     14.92     0  01:29      0.63    0.38    1.00
  WSL2443              CONDUIT     16.75     0  01:30      0.73    0.26    1.00
  WSL2444              CONDUIT     21.48     0  01:30      0.92    0.34    1.00
  WSL2446              CONDUIT     25.38     0  01:30      1.27    0.44    1.00
  WSL2447              CONDUIT     27.16     0  01:30      1.39    1.40    1.00
  WSL2448              CONDUIT     27.35     0  01:30      1.29    0.77    1.00
  WSL2449              CONDUIT     29.23     0  01:31      1.25    1.02    1.00
  WSL2450              CONDUIT     33.89     0  01:31      1.31    0.70    1.00
  WSL2451              CONDUIT     34.37     0  01:31      1.31    2.24    1.00
  WSL2452              CONDUIT     38.16     0  01:31      1.35    0.73    1.00
  WSL2454              CONDUIT     35.66     0  01:31      1.47    0.83    1.00
  WSL2478              CONDUIT     35.75     0  01:31      1.42    1.26    1.00
  WSL2479              CONDUIT     34.94     0  01:31      1.41    0.66    1.00
  WSL2480              CONDUIT     47.32     0  02:20      1.42    2.19    1.00
  WSL2482              CONDUIT     47.16     0  02:20      1.42    1.23    1.00
  WSL2484              CONDUIT     44.16     0  02:20      1.51    0.62    1.00
  WSL2493              CONDUIT     13.36     0  01:29      0.51    0.22    1.00
  8                    CONDUIT     58.05     0  02:50      7.70    0.77    0.66
  19                   CONDUIT      0.00     0  00:00      0.00    0.00    0.00
  17                   CONDUIT     30.04     0  02:56      6.65    0.39    0.43
  CC-Pump-1            PUMP        17.28     0  02:10              1.00
  CC-Pump-2            PUMP        17.28     0  02:10              1.00
  
  
  ***************************
  Flow Classification Summary
  ***************************
  
  -------------------------------------------------------------------------------------
                      Adjusted    ---------- Fraction of Time in Flow Class ---------- 
                       /Actual         Up    Down  Sub   Sup   Up    Down  Norm  Inlet 
  Conduit               Length    Dry  Dry   Dry   Crit  Crit  Crit  Crit  Ltd   Ctrl  
  -------------------------------------------------------------------------------------
  WSL2038                 1.00   0.00  0.00  0.00  1.00  0.00  0.00  0.00  0.01  0.00
  WSL2039                 1.00   0.00  0.00  0.00  1.00  0.00  0.00  0.00  0.00  0.00
  WSL2041                 1.00   0.00  0.00  0.00  1.00  0.00  0.00  0.00  0.29  0.00
  WSL2294                 1.00   0.00  0.00  0.00  1.00  0.00  0.00  0.00  0.00  0.00
  WSL2295                 1.00   0.00  0.00  0.00  1.00  0.00  0.00  0.00  0.00  0.00
  WSL2296                 1.00   0.00  0.00  0.00  1.00  0.00  0.00  0.00  0.17  0.00
  WSL2297                 1.00   0.00  0.00  0.00  1.00  0.00  0.00  0.00  0.00  0.00
  WSL2298                 1.00   0.00  0.00  0.00  0.98  0.02  0.00  0.00  0.00  0.00
  WSL2301                 1.00   0.00  0.00  0.00  1.00  0.00  0.00  0.00  0.04  0.00
  WSL2302                 1.00   0.00  0.00  0.00  1.00  0.00  0.00  0.00  0.01  0.00
  WSL2441                 1.00   0.00  0.00  0.00  1.00  0.00  0.00  0.00  0.00  0.00
  WSL2442                 1.00   0.00  0.00  0.00  1.00  0.00  0.00  0.00  0.17  0.00
  WSL2443                 1.00   0.00  0.00  0.00  1.00  0.00  0.00  0.00  0.30  0.00
  WSL2444                 1.00   0.00  0.00  0.00  0.95  0.05  0.00  0.00  0.23  0.00
  WSL2446                 1.00   0.00  0.00  0.00  0.95  0.05  0.00  0.00  0.00  0.00
  WSL2447                 1.00   0.00  0.00  0.00  1.00  0.00  0.00  0.00  0.00  0.00
  WSL2448                 1.00   0.00  0.00  0.00  1.00  0.00  0.00  0.00  0.00  0.00
  WSL2449                 1.00   0.00  0.00  0.00  1.00  0.00  0.00  0.00  0.02  0.00
  WSL2450                 1.00   0.00  0.00  0.00  1.00  0.00  0.00  0.00  0.36  0.00
  WSL2451                 1.00   0.00  0.00  0.00  1.00  0.00  0.00  0.00  0.00  0.00
  WSL2452                 1.00   0.00  0.00  0.00  1.00  0.00  0.00  0.00  0.35  0.00
  WSL2454                 1.00   0.00  0.00  0.00  1.00  0.00  0.00  0.00  0.01  0.00
  WSL2478                 1.00   0.00  0.00  0.00  1.00  0.00  0.00  0.00  0.00  0.00
  WSL2479                 1.00   0.00  0.00  0.00  1.00  0.00  0.00  0.00  0.35  0.00
  WSL2480                 1.00   0.00  0.00  0.00  1.00  0.00  0.00  0.00  0.00  0.00
  WSL2482                 1.00   0.00  0.00  0.00  1.00  0.00  0.00  0.00  0.35  0.00
  WSL2484                 1.00   0.00  0.00  0.00  1.00  0.00  0.00  0.00  0.34  0.00
  WSL2493                 1.00   0.00  0.00  0.00  1.00  0.00  0.00  0.00  0.05  0.00
  8                       1.00   0.08  0.00  0.00  0.00  0.92  0.00  0.00  0.11  0.00
  19                      1.00   1.00  0.00  0.00  0.00  0.00  0.00  0.00  0.00  0.00
  17                      1.00   0.08  0.00  0.00  0.00  0.92  0.00  0.00  0.02  0.00
  
  
  *************************
  Conduit Surcharge Summary
  *************************
  
  ----------------------------------------------------------------------------
                                                           Hours        Hours 
                         --------- Hours Full --------   Above Full   Capacity
  Conduit                Both Ends  Upstream  Dnstream   Normal Flow   Limited
  ----------------------------------------------------------------------------
  WSL2038                     0.81      0.81      0.86      0.01         0.01
  WSL2039                     0.93      0.93      0.98      0.01         0.01
  WSL2041                     0.86      0.86      0.93      0.01         0.01
  WSL2294                     2.34      2.34      2.34      0.01         0.01
  WSL2295                     2.34      2.34      2.34      0.01         0.04
  WSL2296                     2.34      2.34      2.74      0.01         0.01
  WSL2297                     2.46      2.46      2.48      0.01         0.01
  WSL2298                     2.34      2.34      2.34      1.10         1.14
  WSL2301                     2.48      2.48      2.55      0.01         0.01
  WSL2302                     2.55      2.55      2.61      0.01         0.01
  WSL2441                     2.33      2.33      2.34      0.01         0.01
  WSL2442                     2.33      2.33      2.34      0.01         0.01
  WSL2443                     2.32      2.32      2.33      0.01         0.01
  WSL2444                     2.31      2.31      2.32      0.01         0.01
  WSL2446                     2.31      2.31      2.31      0.01         0.01
  WSL2447                     2.31      2.31      2.31      0.03         0.01
  WSL2448                     2.31      2.31      2.31      0.01         0.01
  WSL2449                     2.31      2.31      2.31      0.01         0.01
  WSL2450                     2.30      2.30      2.31      0.01         0.01
  WSL2451                     2.30      2.30      2.30      0.08         0.01
  WSL2452                     2.30      2.30      2.30      0.01         0.01
  WSL2454                     2.29      2.29      2.30      0.01         0.01
  WSL2478                     2.29      2.29      2.29      0.05         0.01
  WSL2479                     2.05      2.05      2.29      0.01         0.01
  WSL2480                     1.93      1.93      2.05      1.03         0.97
  WSL2482                     1.17      1.17      1.93      0.62         0.62
  WSL2484                     0.73      0.73      1.17      0.01         0.01
  WSL2493                     2.33      2.33      2.33      0.01         0.01
  
  
  ***************
  Pumping Summary
  ***************
  
  ---------------------------------------------------------------------------------------------------------
                                                  Min       Avg       Max     Total     Power    % Time Off
                        Percent   Number of      Flow      Flow      Flow    Volume     Usage    Pump Curve
  Pump                 Utilized   Start-Ups       MLD       MLD       MLD  10^6 ltr     Kw-hr    Low   High
  ---------------------------------------------------------------------------------------------------------
  CC-Pump-1               39.13           3      0.00     11.82     17.28     0.710      4.97    0.0    0.0
  CC-Pump-2               39.13           3      0.00     11.82     17.28     0.710      4.97    0.0    0.0
  
  
  ***************************
  Link Pollutant Load Summary
  ***************************
  
  ------------------------------------------------------------------------------------------
                                 COD         NH3-N            TN            TP            SS
  Link                            kg            kg            kg            kg            kg
  ------------------------------------------------------------------------------------------
  WSL2038                    123.070         0.000         0.000         0.000         0.000
  WSL2039                    127.826         0.000         0.000         0.000         0.000
  WSL2041                    125.951         0.000         0.000         0.000         0.000
  WSL2294                    401.047         0.000         0.000         0.000         0.000
  WSL2295                    397.562         0.000         0.000         0.000         0.000
  WSL2296                    400.517         0.000         0.000         0.000         0.000
  WSL2297                    398.558         0.000         0.000         0.000         0.000
  WSL2298                    397.351         0.000         0.000         0.000         0.000
  WSL2301                    395.752         0.000         0.000         0.000         0.000
  WSL2302                    395.091         0.000         0.000         0.000         0.000
  WSL2441                    404.083         0.000         0.000         0.000         0.000
  WSL2442                     50.957         0.000         0.000         0.000         0.000
  WSL2443                     43.345         0.000         0.000         0.000         0.000
  WSL2444                     36.246         0.000         0.000         0.000         0.000
  WSL2446                     35.691         0.000         0.000         0.000         0.000
  WSL2447                     38.691         0.000         0.000         0.000         0.000
  WSL2448                     40.274         0.000         0.000         0.000         0.000
  WSL2449                     42.754         0.000         0.000         0.000         0.000
  WSL2450                     46.165         0.000         0.000         0.000         0.000
  WSL2451                     49.963         0.000         0.000         0.000         0.000
  WSL2452                     54.208         0.000         0.000         0.000         0.000
  WSL2454                     57.981         0.000         0.000         0.000         0.000
  WSL2478                     60.159         0.000         0.000         0.000         0.000
  WSL2479                    150.318         0.000         0.000         0.000         0.000
  WSL2480                    449.195         0.000         0.000         0.000         0.000
  WSL2482                    446.252         0.000         0.000         0.000         0.000
  WSL2484                    393.416         0.000         0.000         0.000         0.000
  WSL2493                     62.308         0.000         0.000         0.000         0.000
  8                          542.202         0.000         0.000         0.000         0.000
  19                           0.000         0.000         0.000         0.000         0.000
  17                         389.784         0.000         0.000         0.000         0.000
  CC-Pump-1                  131.805         0.000         0.000         0.000         0.000
  CC-Pump-2                  131.805         0.000         0.000         0.000         0.000
  

  Analysis begun on:  Fri Aug 23 09:51:33 2019
  Analysis ended on:  Fri Aug 23 09:51:34 2019
  Total elapsed time: 00:00:01