
  EPA STORM WATER MANAGEMENT MODEL - VERSION 5.1 (Build 5.3.0.dev0)
  --------------------------------------------------------------

  
  *********************************************************
  NOTE: The summary statistics displayed in this report are
  based on results found at every computational time step,  
  not just on results from each reporting time step.
  *********************************************************
  
  ****************
  Analysis Options
  ****************
  Flow Units ............... MLD
  Process Models:
    Rainfall/Runoff ........ YES
    RDII ................... NO
    Snowmelt ............... NO
    Groundwater ............ NO
    Flow Routing ........... YES
    Ponding Allowed ........ NO
    Water Quality .......... YES
  Infiltration Method ...... GREEN_AMPT
  Flow Routing Method ...... DYNWAVE
  Surcharge Method ......... EXTRAN
  Starting Date ............ 08/28/2015 08:00:00
  Ending Date .............. 08/28/2015 10:30:00
  Antecedent Dry Days ...... 4.0
  Report Time Step ......... 00:01:00
  Wet Time Step ............ 00:01:00
  Dry Time Step ............ 00:01:00
  Routing Time Step ........ 5.00 sec
  Variable Time Step ....... YES
  Maximum Trials ........... 8
  Number of Threads ........ 1
  Head Tolerance ........... 0.001500 m
  
  
  **************************        Volume         Depth
  Runoff Quantity Continuity     hectare-m            mm
  **************************     ---------       -------
  Total Precipitation ......         0.499         8.060
  Evaporation Loss .........         0.000         0.000
  Infiltration Loss ........         0.236         3.822
  Surface Runoff ...........         0.047         0.757
  Final Storage ............         0.215         3.481
  Continuity Error (%) .....        -0.005
  
  
  **************************           COD         NH3-N            TN            TP            SS
  Runoff Quality Continuity             kg            kg            kg            kg            kg
  **************************    ----------    ----------    ----------    ----------    ----------
  Initial Buildup ..........      2504.640         0.000         0.000         0.000         0.000
  Surface Buildup ..........        20.001         0.000         0.000         0.000         0.000
  Wet Deposition ...........         0.000         0.000         0.000         0.000         0.000
  Sweeping Removal .........         0.000         0.000         0.000         0.000         0.000
  Infiltration Loss ........         9.924         0.000         0.000         0.000         0.000
  BMP Removal ..............         0.000         0.000         0.000         0.000         0.000
  Surface Runoff ...........        42.472         0.000         0.000         0.000         0.000
  Remaining Buildup ........      2470.483         0.000         0.000         0.000         0.000
  Continuity Error (%) .....         0.070         0.000         0.000         0.000         0.000
  
  
  **************************        Volume        Volume
  Flow Routing Continuity        hectare-m      10^6 ltr
  **************************     ---------     ---------
  Dry Weather Inflow .......         0.000         0.000
  Wet Weather Inflow .......         0.046         0.462
  Groundwater Inflow .......         0.000         0.000
  RDII Inflow ..............         0.000         0.000
  External Inflow ..........         0.056         0.562
  External Outflow .........         0.015         0.146
  Flooding Loss ............         0.022         0.215
  Evaporation Loss .........         0.000         0.000
  Exfiltration Loss ........         0.000         0.000
  Initial Stored Volume ....         0.000         0.000
  Final Stored Volume ......         0.062         0.620
  Continuity Error (%) .....         4.125
  
  
  **************************           COD         NH3-N            TN            TP            SS
  Quality Routing Continuity            kg            kg            kg            kg            kg
  **************************    ----------    ----------    ----------    ----------    ----------
  Dry Weather Inflow .......         0.000         0.000         0.000         0.000         0.000
  Wet Weather Inflow .......        41.838         0.000         0.000         0.000         0.000
  Groundwater Inflow .......         0.000         0.000         0.000         0.000         0.000
  RDII Inflow ..............         0.000         0.000         0.000         0.000         0.000
  External Inflow ..........        93.808         0.000         0.000         0.000         0.000
  External Outflow .........        18.971         0.000         0.000         0.000         0.000
  Flooding Loss ............        26.375         0.000         0.000         0.000         0.000
  Exfiltration Loss ........         0.000         0.000         0.000         0.000         0.000
  Mass Reacted .............         0.000         0.000         0.000         0.000         0.000
  Initial Stored Mass ......         0.000         0.000         0.000         0.000         0.000
  Final Stored Mass ........        82.792         0.000         0.000         0.000         0.000
  Continuity Error (%) .....         5.535         0.000         0.000         0.000         0.000
  
  
  *************************
  Highest Continuity Errors
  *************************
  Node WS02004401 (29.66%)
  Node WS02006116 (26.59%)
  Node WS02006115 (26.45%)
  Node WS02006112 (19.93%)
  Node WS02006110 (14.07%)
  
  
  ***************************
  Time-Step Critical Elements
  ***************************
  Link WSL2448 (45.78%)
  Link 8 (43.32%)
  Link 17 (1.56%)
  
  
  ********************************
  Highest Flow Instability Indexes
  ********************************
  Link WSL2302 (12)
  Link WSL2301 (12)
  Link WSL2297 (11)
  Link WSL2296 (10)
  Link WSL2298 (8)
  
  
  *************************
  Routing Time Step Summary
  *************************
  Minimum Time Step           :     0.18 sec
  Average Time Step           :     2.70 sec
  Maximum Time Step           :     5.00 sec
  Percent in Steady State     :     0.00
  Average Iterations per Step :     2.22
  Percent Not Converging      :     0.84
  
  
  ***************************
  Subcatchment Runoff Summary
  ***************************
  
  ------------------------------------------------------------------------------------------------------------------------------
                            Total      Total      Total      Total     Imperv       Perv      Total       Total     Peak  Runoff
                           Precip      Runon       Evap      Infil     Runoff     Runoff     Runoff      Runoff   Runoff   Coeff
  Subcatchment                 mm         mm         mm         mm         mm         mm         mm    10^6 ltr      MLD
  ------------------------------------------------------------------------------------------------------------------------------
  1                          8.06       3.53       0.00       4.14       2.23       0.33       2.56        0.03     1.14   0.221
  2                          8.06       0.00       0.00       3.74       1.35       0.06       1.41        0.05     1.52   0.175
  3                          8.06       0.00       0.00       3.74       1.27       0.05       1.32        0.07     2.20   0.164
  35                         8.06       0.00       0.00       3.74       1.37       0.07       1.43        0.04     1.38   0.178
  36                         8.06       2.43       0.00       4.04       1.66       0.12       1.78        0.10     3.82   0.170
  40                         8.06       0.74       0.00       3.83       1.45       0.08       1.54        0.06     2.00   0.175
  41                         8.06       0.00       0.00       3.73       1.44       0.08       1.53        0.03     0.92   0.189
  42                         8.06       0.00       0.00       3.73       1.42       0.08       1.49        0.03     1.07   0.185
  43                         8.06       0.00       0.00       3.72       1.66       0.19       1.85        0.01     0.21   0.230
  44                         8.06      29.39       0.00       6.04       8.29       6.31      14.61        0.05     2.61   0.390
  45                         8.06       0.00       0.00       3.73       1.54       0.11       1.65        0.02     0.52   0.205
  46                         8.06       2.11       0.00       4.00       1.84       0.18       2.01        0.04     1.48   0.198
  47                         8.06       0.00       0.00       3.73       1.53       0.11       1.64        0.02     0.56   0.203
  48                         8.06       1.13       0.00       3.88       1.70       0.15       1.85        0.03     0.95   0.201
  55                         8.06       1.67       0.00       3.95       1.92       0.24       2.16        0.02     0.59   0.222
  56                         8.06       2.25       0.00       4.02       1.86       0.19       2.05        0.04     1.52   0.198
  57                         8.06       0.00       0.00       3.74       1.27       0.05       1.33        0.07     2.16   0.164
  59                         8.06       0.00       0.00       3.73       1.57       0.12       1.69        0.01     0.44   0.210
  60                         8.06       3.66       0.00       4.18       2.41       0.52       2.94        0.02     0.54   0.250
  61                         8.06       0.00       0.00       3.74       1.00       0.03       1.02        0.18     6.64   0.127
  64                         8.06       0.00       0.00       3.73       1.52       0.11       1.62        0.02     0.60   0.201
  
  
  ****************************
  Subcatchment Washoff Summary
  ****************************
  
  ------------------------------------------------------------------------------------------
                                 COD         NH3-N            TN            TP            SS
  Subcatchment                    kg            kg            kg            kg            kg
  ------------------------------------------------------------------------------------------
  1                            1.184         0.000         0.000         0.000         0.000
  2                            0.000         0.000         0.000         0.000         0.000
  3                            0.000         0.000         0.000         0.000         0.000
  35                           3.650         0.000         0.000         0.000         0.000
  36                          14.050         0.000         0.000         0.000         0.000
  40                           5.960         0.000         0.000         0.000         0.000
  41                           2.583         0.000         0.000         0.000         0.000
  42                           2.931         0.000         0.000         0.000         0.000
  43                           0.659         0.000         0.000         0.000         0.000
  44                          21.122         0.000         0.000         0.000         0.000
  45                           1.557         0.000         0.000         0.000         0.000
  46                           5.973         0.000         0.000         0.000         0.000
  47                           1.654         0.000         0.000         0.000         0.000
  48                           3.393         0.000         0.000         0.000         0.000
  55                           2.432         0.000         0.000         0.000         0.000
  56                           6.291         0.000         0.000         0.000         0.000
  57                           5.301         0.000         0.000         0.000         0.000
  59                           1.319         0.000         0.000         0.000         0.000
  60                           2.890         0.000         0.000         0.000         0.000
  61                          12.434         0.000         0.000         0.000         0.000
  64                           1.761         0.000         0.000         0.000         0.000
  ------------------------------------------------------------------------------------------
  System                      97.144         0.000         0.000         0.000         0.000
  
  
  ******************
  Node Depth Summary
  ******************
  
  ---------------------------------------------------------------------------------
                                 Average  Maximum  Maximum  Time of Max    Reported
                                   Depth    Depth      HGL   Occurrence   Max Depth
  Node                 Type       Meters   Meters   Meters  days hr:min      Meters
  ---------------------------------------------------------------------------------
  WS01000070           JUNCTION     0.00     0.00     0.00     0  00:00        0.00
  WS01000323           JUNCTION     0.00     0.00     0.00     0  00:00        0.00
  WS01000533           JUNCTION     0.00     0.00     6.86     0  00:00        0.00
  WS01005172           JUNCTION     0.00     0.00     0.00     0  00:00        0.00
  WS01005181           JUNCTION     0.00     0.00     0.00     0  00:00        0.00
  WS01009841           JUNCTION     0.00     0.00     0.00     0  00:00        0.00
  WS02000078           JUNCTION     0.00     0.00     0.00     0  00:00        0.00
  WS02000112           JUNCTION     0.00     0.00     0.00     0  00:00        0.00
  WS02000136           JUNCTION     0.00     0.00     0.00     0  00:00        0.00
  WS02004053           JUNCTION     0.00     0.00     0.00     0  00:00        0.00
  WS02004401           JUNCTION     1.59     2.28     8.28     0  02:30        2.28
  WS02005192           JUNCTION     0.22     0.44     8.31     0  02:14        0.43
  WS02005193           JUNCTION     0.25     0.48     8.30     0  02:14        0.47
  WS02005196           JUNCTION     0.23     0.46     8.31     0  02:13        0.46
  WS02006109           JUNCTION     1.04     1.66     8.28     0  02:30        1.66
  WS02006110           JUNCTION     1.05     1.68     8.28     0  02:30        1.68
  WS02006111           JUNCTION     1.06     1.70     8.28     0  02:30        1.70
  WS02006112           JUNCTION     1.48     2.16     8.28     0  02:30        2.16
  WS02006113           JUNCTION     1.06     1.69     8.28     0  02:30        1.69
  WS02006115           JUNCTION     1.50     2.18     8.28     0  02:30        2.18
  WS02006116           JUNCTION     1.55     2.24     8.28     0  02:30        2.24
  WS02006183           JUNCTION     0.00     0.00     0.00     0  00:00        0.00
  WS02006228           JUNCTION     1.01     1.63     8.28     0  02:14        1.63
  WS02006229           JUNCTION     0.98     1.59     8.28     0  02:14        1.59
  WS02006230           JUNCTION     0.93     1.53     8.28     0  02:14        1.53
  WS02006231           JUNCTION     0.81     1.38     8.28     0  02:14        1.38
  WS02006232           JUNCTION     0.72     1.25     8.28     0  02:14        1.25
  WS02006234           JUNCTION     0.63     1.12     8.28     0  02:14        1.12
  WS02006235           JUNCTION     0.64     1.11     8.28     0  02:14        1.11
  WS02006238           JUNCTION     0.63     1.10     8.28     0  02:14        1.10
  WS02006239           JUNCTION     0.61     1.07     8.28     0  02:14        1.07
  WS02006242           JUNCTION     0.56     0.98     8.28     0  02:14        0.98
  WS02006240           JUNCTION     0.55     0.99     8.28     0  02:14        0.99
  WS02006243           JUNCTION     0.47     0.86     8.28     0  02:14        0.86
  WS02006245           JUNCTION     0.43     0.79     8.28     0  02:14        0.79
  WS02006247           JUNCTION     0.42     0.77     8.28     0  02:14        0.77
  WS02006248           JUNCTION     0.37     0.69     8.28     0  02:15        0.69
  WS02006249           JUNCTION     0.37     0.68     8.28     0  02:15        0.68
  WS02006251           JUNCTION     0.32     0.62     8.29     0  02:13        0.62
  WS02006253           JUNCTION     0.25     0.50     8.30     0  02:14        0.50
  WS02618401           JUNCTION     0.00     0.00     0.00     0  00:00        0.00
  WSA1649              JUNCTION     0.00     0.00     0.00     0  00:00        0.00
  outfall-5            OUTFALL      0.04     0.09     7.76     0  02:15        0.09
  outfall-14           OUTFALL      0.03     0.07     7.73     0  02:30        0.07
  outfall-16           OUTFALL      0.00     0.00     8.39     0  00:00        0.00
  CC-storage           STORAGE      4.43     5.63     8.81     0  01:40        5.63
  
  
  *******************
  Node Inflow Summary
  *******************
  
  -------------------------------------------------------------------------------------------------
                                  Maximum  Maximum                  Lateral       Total        Flow
                                  Lateral    Total  Time of Max      Inflow      Inflow     Balance
                                   Inflow   Inflow   Occurrence      Volume      Volume       Error
  Node                 Type           MLD      MLD  days hr:min    10^6 ltr    10^6 ltr     Percent
  -------------------------------------------------------------------------------------------------
  WS01000070           JUNCTION      0.00     0.00     0  00:00           0           0       0.000 ltr
  WS01000323           JUNCTION      0.00     0.00     0  00:00           0           0       0.000 ltr
  WS01000533           JUNCTION      0.00     0.00     0  00:00           0           0       0.000 ltr
  WS01005172           JUNCTION      0.00     0.00     0  00:00           0           0       0.000 ltr
  WS01005181           JUNCTION      0.00     0.00     0  00:00           0           0       0.000 ltr
  WS01009841           JUNCTION      0.00     0.00     0  00:00           0           0       0.000 ltr
  WS02000078           JUNCTION      0.00     0.00     0  00:00           0           0       0.000 ltr
  WS02000112           JUNCTION      0.00     0.00     0  00:00           0           0       0.000 ltr
  WS02000136           JUNCTION      0.00     0.00     0  00:00           0           0       0.000 ltr
  WS02004053           JUNCTION      0.00     0.00     0  00:00           0           0       0.000 ltr
  WS02004401           JUNCTION      0.05     5.92     0  02:30     0.00561      0.0946      42.167
  WS02005192           JUNCTION      2.26     2.26     0  02:30      0.0771      0.0771       3.209
  WS02005193           JUNCTION      0.09     3.12     0  02:12      0.0094      0.0937       7.902
  WS02005196           JUNCTION      0.12     3.16     0  02:15      0.0124      0.0875       7.664
  WS02006109           JUNCTION      0.08     2.84     0  01:54     0.00863       0.191      14.645
  WS02006110           JUNCTION      0.08     2.86     0  02:30     0.00843       0.176      16.377
  WS02006111           JUNCTION      0.24     5.43     0  02:30      0.0241       0.171      13.909
  WS02006112           JUNCTION      0.18     5.59     0  02:30      0.0179       0.166      24.895
  WS02006113           JUNCTION      2.36     5.22     0  02:30      0.0838       0.203      13.360
  WS02006115           JUNCTION      0.08     5.66     0  02:30     0.00862       0.144      35.959
  WS02006116           JUNCTION      0.24     5.87     0  02:30      0.0238       0.133      36.225
  WS02006183           JUNCTION      0.00     0.00     0  00:00           0           0       0.000 ltr
  WS02006228           JUNCTION      2.78     3.91     0  01:54      0.0719       0.229       8.654
  WS02006229           JUNCTION      0.13     3.97     0  01:54       0.013       0.204       8.587
  WS02006230           JUNCTION      0.07     3.96     0  01:54      0.0074       0.211      13.611
  WS02006231           JUNCTION      0.13     4.13     0  01:55      0.0134       0.211       7.733
  WS02006232           JUNCTION      1.60     5.14     0  01:55      0.0557       0.246       6.705
  WS02006234           JUNCTION      0.14     5.03     0  01:58      0.0141       0.232       6.336
  WS02006235           JUNCTION      0.14     5.54     0  01:58      0.0146       0.221       3.756
  WS02006238           JUNCTION      0.15     5.60     0  02:00      0.0154       0.213       4.997
  WS02006239           JUNCTION      0.11     5.08     0  01:59      0.0113       0.206       7.965
  WS02006242           JUNCTION      0.08     5.02     0  02:12     0.00827       0.198      10.213
  WS02006240           JUNCTION      0.06     4.96     0  02:01     0.00628       0.199       8.932
  WS02006243           JUNCTION      0.17     5.17     0  02:12      0.0177       0.196       9.648
  WS02006245           JUNCTION      0.07     5.29     0  02:12     0.00722        0.18       7.908
  WS02006247           JUNCTION      1.28     6.52     0  02:12       0.047       0.194       6.228
  WS02006248           JUNCTION      0.12     9.07     0  02:15      0.0125       0.204       5.405
  WS02006249           JUNCTION      0.19     5.51     0  02:11      0.0188       0.145      10.881
  WS02006251           JUNCTION      0.65     4.48     0  02:11      0.0239       0.129      12.142
  WS02006253           JUNCTION      0.11     3.63     0  02:14      0.0112       0.104       7.187
  WS02618401           JUNCTION      0.00     0.00     0  00:00           0           0       0.000 ltr
  WSA1649              JUNCTION      0.00     0.00     0  00:00           0           0       0.000 ltr
  outfall-5            OUTFALL       0.00     9.08     0  02:15           0       0.086       0.000
  outfall-14           OUTFALL       0.00     5.92     0  02:30           0        0.06       0.000
  outfall-16           OUTFALL       0.00     0.00     0  00:00           0           0       0.000 ltr
  CC-storage           STORAGE       8.26     8.26     0  02:30       0.374       0.374       0.001
  
  
  **********************
  Node Surcharge Summary
  **********************
  
  Surcharging occurs when water rises above the top of the highest conduit.
  ---------------------------------------------------------------------
                                               Max. Height   Min. Depth
                                   Hours       Above Crown    Below Rim
  Node                 Type      Surcharged         Meters       Meters
  ---------------------------------------------------------------------
  WS01000070           JUNCTION        2.50          0.000        0.000
  WS01000323           JUNCTION        2.50          0.000        0.000
  WS01000533           JUNCTION        2.50          0.000        2.147
  WS01005172           JUNCTION        2.50          0.000        0.000
  WS01005181           JUNCTION        2.50          0.000        0.000
  WS01009841           JUNCTION        2.50          0.000        0.000
  WS02000078           JUNCTION        2.50          0.000        0.000
  WS02000112           JUNCTION        2.50          0.000        0.000
  WS02000136           JUNCTION        2.50          0.000        0.000
  WS02004053           JUNCTION        2.50          0.000        0.000
  WS02006109           JUNCTION        0.80          0.858        0.980
  WS02006110           JUNCTION        0.81          0.877        0.968
  WS02006111           JUNCTION        0.82          0.897        0.980
  WS02006112           JUNCTION        1.07          1.156        0.527
  WS02006113           JUNCTION        0.82          0.887        1.046
  WS02006115           JUNCTION        1.10          1.176        1.123
  WS02006116           JUNCTION        1.18          1.235        1.115
  WS02006183           JUNCTION        2.50          0.000        0.000
  WS02006228           JUNCTION        0.78          0.829        1.402
  WS02006229           JUNCTION        0.75          0.790        1.664
  WS02006231           JUNCTION        0.68          0.684        0.859
  WS02006232           JUNCTION        0.58          0.554        0.935
  WS02006234           JUNCTION        0.49          0.425        0.832
  WS02006235           JUNCTION        0.49          0.415        0.879
  WS02006238           JUNCTION        0.49          0.405        1.029
  WS02006239           JUNCTION        0.46          0.374        0.955
  WS02006242           JUNCTION        0.41          0.284        0.565
  WS02006240           JUNCTION        0.41          0.294        1.109
  WS02006243           JUNCTION        0.34          0.163        0.617
  WS02006245           JUNCTION        0.32          0.094        0.761
  WS02006247           JUNCTION        0.31          0.074        0.686
  WS02618401           JUNCTION        2.50          0.000        0.000
  WSA1649              JUNCTION        2.50          0.000        0.000
  
  
  *********************
  Node Flooding Summary
  *********************
  
  Flooding refers to all water that overflows a node, whether it ponds or not.
  --------------------------------------------------------------------------
                                                             Total   Maximum
                                 Maximum   Time of Max       Flood    Ponded
                        Hours       Rate    Occurrence      Volume     Depth
  Node                 Flooded       MLD   days hr:min    10^6 ltr    Meters
  --------------------------------------------------------------------------
  CC-storage              0.83      8.26      0  02:30       0.215     0.000
  
  
  **********************
  Storage Volume Summary
  **********************
  
  --------------------------------------------------------------------------------------------------
                         Average     Avg  Evap Exfil       Maximum     Max    Time of Max    Maximum
                          Volume    Pcnt  Pcnt  Pcnt        Volume    Pcnt     Occurrence    Outflow
  Storage Unit           1000 m3    Full  Loss  Loss       1000 m3    Full    days hr:min        MLD
  --------------------------------------------------------------------------------------------------
  CC-storage               0.125      79     0     0         0.159     100       0  01:40       0.00
  
  
  ***********************
  Outfall Loading Summary
  ***********************
  
  ---------------------------------------------------------------------------------------------------------------------------------
                         Flow       Avg       Max       Total         Total         Total         Total         Total         Total
                         Freq      Flow      Flow      Volume           COD         NH3-N            TN            TP            SS
  Outfall Node           Pcnt       MLD       MLD    10^6 ltr            kg            kg            kg            kg            kg
  ---------------------------------------------------------------------------------------------------------------------------------
  outfall-5             44.94      6.78      9.08       0.086         9.115         0.000         0.000         0.000         0.000
  outfall-14            44.79      4.72      5.92       0.060         9.866         0.000         0.000         0.000         0.000
  outfall-16             0.00      0.00      0.00       0.000         0.000         0.000         0.000         0.000         0.000
  ---------------------------------------------------------------------------------------------------------------------------------
  System                29.91     11.50     13.42       0.146        18.981         0.000         0.000         0.000         0.000
  
  
  ********************
  Link Flow Summary
  ********************
  
  -----------------------------------------------------------------------------
                                 Maximum  Time of Max   Maximum    Max/    Max/
                                  |Flow|   Occurrence   |Veloc|    Full    Full
  Link                 Type          MLD  days hr:min     m/sec    Flow   Depth
  -----------------------------------------------------------------------------
  WSL2038              CONDUIT      3.05     0  02:15      0.49    0.15    0.74
  WSL2039              CONDUIT      3.53     0  02:14      0.74    0.18    0.81
  WSL2041              CONDUIT      2.92     0  02:14      0.54    0.14    0.77
  WSL2294              CONDUIT      2.79     0  02:30      0.43    0.09    1.00
  WSL2295              CONDUIT      2.86     0  02:30      0.50    0.13    1.00
  WSL2296              CONDUIT      5.43     0  02:30      0.63    0.03    1.00
  WSL2297              CONDUIT      5.59     0  02:30      0.34    0.11    1.00
  WSL2298              CONDUIT      5.22     0  02:30      0.87    0.24    1.00
  WSL2301              CONDUIT      5.66     0  02:30      0.29    0.05    1.00
  WSL2302              CONDUIT      5.87     0  02:30      0.23    0.07    1.00
  WSL2441              CONDUIT      2.81     0  01:54      0.44    0.07    1.00
  WSL2442              CONDUIT      3.88     0  01:54      0.63    0.10    1.00
  WSL2443              CONDUIT      4.00     0  01:55      0.73    0.06    1.00
  WSL2444              CONDUIT      4.11     0  01:55      0.88    0.07    1.00
  WSL2446              CONDUIT      4.89     0  01:58      0.84    0.08    1.00
  WSL2447              CONDUIT      5.40     0  01:58      0.71    0.28    1.00
  WSL2448              CONDUIT      5.46     0  02:00      0.57    0.15    1.00
  WSL2449              CONDUIT      4.97     0  01:59      0.55    0.17    1.00
  WSL2450              CONDUIT      4.90     0  02:01      0.63    0.10    1.00
  WSL2451              CONDUIT      4.95     0  02:12      0.61    0.32    1.00
  WSL2452              CONDUIT      5.02     0  02:12      0.63    0.10    1.00
  WSL2454              CONDUIT      5.22     0  02:12      0.77    0.12    1.00
  WSL2478              CONDUIT      5.56     0  02:12      0.66    0.20    1.00
  WSL2479              CONDUIT      6.53     0  02:12      0.59    0.12    1.00
  WSL2480              CONDUIT      5.35     0  02:11      0.64    0.25    0.98
  WSL2482              CONDUIT      4.22     0  02:15      0.56    0.11    0.93
  WSL2484              CONDUIT      3.69     0  02:14      0.66    0.05    0.80
  WSL2493              CONDUIT      3.85     0  01:54      0.51    0.06    1.00
  8                    CONDUIT      9.08     0  02:15      4.70    0.12    0.23
  19                   CONDUIT      0.00     0  00:00      0.00    0.00    0.00
  17                   CONDUIT      5.92     0  02:30      4.20    0.08    0.19
  CC-Pump-1            PUMP         0.00     0  00:00              0.00
  CC-Pump-2            PUMP         0.00     0  00:00              0.00
  
  
  ***************************
  Flow Classification Summary
  ***************************
  
  -------------------------------------------------------------------------------------
                      Adjusted    ---------- Fraction of Time in Flow Class ---------- 
                       /Actual         Up    Down  Sub   Sup   Up    Down  Norm  Inlet 
  Conduit               Length    Dry  Dry   Dry   Crit  Crit  Crit  Crit  Ltd   Ctrl  
  -------------------------------------------------------------------------------------
  WSL2038                 1.00   0.00  0.00  0.00  1.00  0.00  0.00  0.00  0.01  0.00
  WSL2039                 1.00   0.00  0.00  0.00  1.00  0.00  0.00  0.00  0.01  0.00
  WSL2041                 1.00   0.00  0.00  0.00  1.00  0.00  0.00  0.00  0.51  0.00
  WSL2294                 1.00   0.00  0.00  0.00  1.00  0.00  0.00  0.00  0.00  0.00
  WSL2295                 1.00   0.00  0.00  0.00  1.00  0.00  0.00  0.00  0.00  0.00
  WSL2296                 1.00   0.00  0.00  0.00  0.99  0.01  0.00  0.00  0.26  0.00
  WSL2297                 1.00   0.00  0.00  0.00  1.00  0.00  0.00  0.00  0.00  0.00
  WSL2298                 1.00   0.00  0.00  0.00  0.92  0.08  0.00  0.00  0.00  0.00
  WSL2301                 1.00   0.00  0.00  0.00  1.00  0.00  0.00  0.00  0.06  0.00
  WSL2302                 1.00   0.00  0.00  0.00  1.00  0.00  0.00  0.00  0.01  0.00
  WSL2441                 1.00   0.00  0.00  0.00  1.00  0.00  0.00  0.00  0.00  0.00
  WSL2442                 1.00   0.00  0.00  0.00  1.00  0.00  0.00  0.00  0.25  0.00
  WSL2443                 1.00   0.00  0.00  0.00  1.00  0.00  0.00  0.00  0.47  0.00
  WSL2444                 1.00   0.00  0.00  0.00  0.74  0.26  0.00  0.00  0.37  0.00
  WSL2446                 1.00   0.00  0.00  0.00  0.70  0.30  0.00  0.00  0.05  0.00
  WSL2447                 1.00   0.00  0.00  0.00  1.00  0.00  0.00  0.00  0.00  0.00
  WSL2448                 1.00   0.00  0.00  0.00  1.00  0.00  0.00  0.00  0.00  0.00
  WSL2449                 1.00   0.00  0.00  0.00  1.00  0.00  0.00  0.00  0.04  0.00
  WSL2450                 1.00   0.00  0.00  0.00  1.00  0.00  0.00  0.00  0.68  0.00
  WSL2451                 1.00   0.00  0.00  0.00  1.00  0.00  0.00  0.00  0.00  0.00
  WSL2452                 1.00   0.00  0.00  0.00  1.00  0.00  0.00  0.00  0.69  0.00
  WSL2454                 1.00   0.00  0.00  0.00  1.00  0.00  0.00  0.00  0.03  0.00
  WSL2478                 1.00   0.00  0.00  0.00  1.00  0.00  0.00  0.00  0.00  0.00
  WSL2479                 1.00   0.00  0.00  0.00  1.00  0.00  0.00  0.00  0.76  0.00
  WSL2480                 1.00   0.00  0.00  0.00  1.00  0.00  0.00  0.00  0.00  0.00
  WSL2482                 1.00   0.00  0.00  0.00  1.00  0.00  0.00  0.00  0.78  0.00
  WSL2484                 1.00   0.00  0.00  0.00  0.99  0.01  0.00  0.00  0.79  0.00
  WSL2493                 1.00   0.00  0.00  0.00  1.00  0.00  0.00  0.00  0.08  0.00
  8                       1.00   0.55  0.00  0.00  0.00  0.45  0.00  0.00  0.02  0.00
  19                      1.00   1.00  0.00  0.00  0.00  0.00  0.00  0.00  0.00  0.00
  17                      1.00   0.55  0.00  0.00  0.00  0.45  0.00  0.00  0.00  0.00
  
  
  *************************
  Conduit Surcharge Summary
  *************************
  
  ----------------------------------------------------------------------------
                                                           Hours        Hours 
                         --------- Hours Full --------   Above Full   Capacity
  Conduit                Both Ends  Upstream  Dnstream   Normal Flow   Limited
  ----------------------------------------------------------------------------
  WSL2294                     0.80      0.80      0.81      0.01         0.01
  WSL2295                     0.81      0.81      0.82      0.01         0.01
  WSL2296                     0.82      0.82      1.40      0.01         0.01
  WSL2297                     1.07      1.07      1.10      0.01         0.01
  WSL2298                     0.82      0.82      0.82      0.01         0.01
  WSL2301                     1.10      1.10      1.18      0.01         0.01
  WSL2302                     1.18      1.18      1.26      0.01         0.01
  WSL2441                     0.78      0.78      0.80      0.01         0.01
  WSL2442                     0.78      0.78      0.81      0.01         0.01
  WSL2443                     0.68      0.68      0.78      0.01         0.01
  WSL2444                     0.58      0.58      0.68      0.01         0.01
  WSL2446                     0.49      0.49      0.58      0.01         0.01
  WSL2447                     0.49      0.49      0.49      0.01         0.01
  WSL2448                     0.49      0.49      0.49      0.01         0.01
  WSL2449                     0.46      0.46      0.49      0.01         0.01
  WSL2450                     0.41      0.41      0.46      0.01         0.01
  WSL2451                     0.41      0.41      0.41      0.01         0.01
  WSL2452                     0.34      0.34      0.41      0.01         0.01
  WSL2454                     0.32      0.32      0.34      0.01         0.01
  WSL2478                     0.31      0.31      0.32      0.01         0.01
  WSL2479                     0.01      0.01      0.31      0.01         0.01
  WSL2493                     0.75      0.75      0.78      0.01         0.01
  
  
  ***************
  Pumping Summary
  ***************
  
  ---------------------------------------------------------------------------------------------------------
                                                  Min       Avg       Max     Total     Power    % Time Off
                        Percent   Number of      Flow      Flow      Flow    Volume     Usage    Pump Curve
  Pump                 Utilized   Start-Ups       MLD       MLD       MLD  10^6 ltr     Kw-hr    Low   High
  ---------------------------------------------------------------------------------------------------------
  CC-Pump-1                0.00           0      0.00      0.00      0.00     0.000      0.00    0.0    0.0
  CC-Pump-2                0.00           0      0.00      0.00      0.00     0.000      0.00    0.0    0.0
  
  
  ***************************
  Link Pollutant Load Summary
  ***************************
  
  ------------------------------------------------------------------------------------------
                                 COD         NH3-N            TN            TP            SS
  Link                            kg            kg            kg            kg            kg
  ------------------------------------------------------------------------------------------
  WSL2038                      6.837         0.000         0.000         0.000         0.000
  WSL2039                      9.784         0.000         0.000         0.000         0.000
  WSL2041                      8.322         0.000         0.000         0.000         0.000
  WSL2294                     25.501         0.000         0.000         0.000         0.000
  WSL2295                     20.103         0.000         0.000         0.000         0.000
  WSL2296                     21.462         0.000         0.000         0.000         0.000
  WSL2297                     20.412         0.000         0.000         0.000         0.000
  WSL2298                     18.789         0.000         0.000         0.000         0.000
  WSL2301                     17.988         0.000         0.000         0.000         0.000
  WSL2302                     15.792         0.000         0.000         0.000         0.000
  WSL2441                     30.789         0.000         0.000         0.000         0.000
  WSL2442                     35.021         0.000         0.000         0.000         0.000
  WSL2443                     32.293         0.000         0.000         0.000         0.000
  WSL2444                     30.438         0.000         0.000         0.000         0.000
  WSL2446                     30.408         0.000         0.000         0.000         0.000
  WSL2447                     29.256         0.000         0.000         0.000         0.000
  WSL2448                     27.978         0.000         0.000         0.000         0.000
  WSL2449                     26.428         0.000         0.000         0.000         0.000
  WSL2450                     25.182         0.000         0.000         0.000         0.000
  WSL2451                     24.337         0.000         0.000         0.000         0.000
  WSL2452                     23.596         0.000         0.000         0.000         0.000
  WSL2454                     21.516         0.000         0.000         0.000         0.000
  WSL2478                     20.445         0.000         0.000         0.000         0.000
  WSL2479                     19.179         0.000         0.000         0.000         0.000
  WSL2480                     16.620         0.000         0.000         0.000         0.000
  WSL2482                     14.081         0.000         0.000         0.000         0.000
  WSL2484                     11.755         0.000         0.000         0.000         0.000
  WSL2493                     36.744         0.000         0.000         0.000         0.000
  8                            9.115         0.000         0.000         0.000         0.000
  19                           0.000         0.000         0.000         0.000         0.000
  17                           9.866         0.000         0.000         0.000         0.000
  CC-Pump-1                    0.000         0.000         0.000         0.000         0.000
  CC-Pump-2                    0.000         0.000         0.000         0.000         0.000
  

  Analysis begun on:  Fri Nov 29 09:09:55 2019
  Analysis ended on:  Fri Nov 29 09:09:55 2019
  Total elapsed time: < 1 sec