
  EPA STORM WATER MANAGEMENT MODEL - VERSION 5.1 (Build 5.2.0.dev1)
  --------------------------------------------------------------

  
  *********************************************************
  NOTE: The summary statistics displayed in this report are
  based on results found at every computational time step,  
  not just on results from each reporting time step.
  *********************************************************
  
  ****************
  Analysis Options
  ****************
  Flow Units ............... MLD
  Process Models:
    Rainfall/Runoff ........ YES
    RDII ................... NO
    Snowmelt ............... NO
    Groundwater ............ NO
    Flow Routing ........... YES
    Ponding Allowed ........ NO
    Water Quality .......... YES
  Infiltration Method ...... GREEN_AMPT
  Flow Routing Method ...... DYNWAVE
  Starting Date ............ 08/28/2015 08:00:00
  Ending Date .............. 08/28/2015 12:00:00
  Antecedent Dry Days ...... 4.0
  Report Time Step ......... 00:01:00
  Wet Time Step ............ 00:01:00
  Dry Time Step ............ 00:01:00
  Routing Time Step ........ 5.00 sec
  Variable Time Step ....... YES
  Maximum Trials ........... 8
  Number of Threads ........ 1
  Head Tolerance ........... 0.001500 m
  
  
  **************************        Volume         Depth
  Runoff Quantity Continuity     hectare-m            mm
  **************************     ---------       -------
  Total Precipitation ......        13.276        47.068
  Evaporation Loss .........         0.000         0.000
  Infiltration Loss ........         4.816        17.073
  Surface Runoff ...........         5.282        18.726
  Final Storage ............         3.184        11.290
  Continuity Error (%) .....        -0.046
  
  
  **************************           COD         NH3-N            TN            TP            SS
  Runoff Quality Continuity             kg            kg            kg            kg            kg
  **************************    ----------    ----------    ----------    ----------    ----------
  Initial Buildup ..........     13074.240         0.000         0.000         0.000         0.000
  Surface Buildup ..........       100.807         0.000         0.000         0.000         0.000
  Wet Deposition ...........         0.000         0.000         0.000         0.000         0.000
  Sweeping Removal .........         0.000         0.000         0.000         0.000         0.000
  Infiltration Loss ........       414.060         0.000         0.000         0.000         0.000
  BMP Removal ..............         0.000         0.000         0.000         0.000         0.000
  Surface Runoff ...........     10416.911         0.000         0.000         0.000         0.000
  Remaining Buildup ........      2350.057         0.000         0.000         0.000         0.000
  Continuity Error (%) .....        -0.045         0.000         0.000         0.000         0.000
  
  
  **************************        Volume        Volume
  Flow Routing Continuity        hectare-m      10^6 ltr
  **************************     ---------     ---------
  Dry Weather Inflow .......         0.000         0.000
  Wet Weather Inflow .......         5.272        52.724
  Groundwater Inflow .......         0.000         0.000
  RDII Inflow ..............         0.000         0.000
  External Inflow ..........         0.561         5.611
  External Outflow .........         2.104        21.038
  Flooding Loss ............         3.575        35.746
  Evaporation Loss .........         0.000         0.000
  Exfiltration Loss ........         0.000         0.000
  Initial Stored Volume ....         0.000         0.000
  Final Stored Volume ......         0.159         1.586
  Continuity Error (%) .....        -0.059
  
  
  **************************           COD         NH3-N            TN            TP            SS
  Quality Routing Continuity            kg            kg            kg            kg            kg
  **************************    ----------    ----------    ----------    ----------    ----------
  Dry Weather Inflow .......         0.000         0.000         0.000         0.000         0.000
  Wet Weather Inflow .......     10410.609         0.000         0.000         0.000         0.000
  Groundwater Inflow .......         0.000         0.000         0.000         0.000         0.000
  RDII Inflow ..............         0.000         0.000         0.000         0.000         0.000
  External Inflow ..........       937.003         0.000         0.000         0.000         0.000
  External Outflow .........      3609.365         0.000         0.000         0.000         0.000
  Flooding Loss ............      7647.926         0.000         0.000         0.000         0.000
  Exfiltration Loss ........         0.000         0.000         0.000         0.000         0.000
  Mass Reacted .............         0.000         0.000         0.000         0.000         0.000
  Initial Stored Mass ......         0.000         0.000         0.000         0.000         0.000
  Final Stored Mass ........        96.056         0.000         0.000         0.000         0.000
  Continuity Error (%) .....        -0.051         0.000         0.000         0.000         0.000
  
  
  ***************************
  Time-Step Critical Elements
  ***************************
  Link 8 (51.29%)
  Link WSL1477 (23.84%)
  Link WSL1516 (9.32%)
  Link WSL2448 (1.79%)
  Link WSL2012 (1.04%)
  
  
  ********************************
  Highest Flow Instability Indexes
  ********************************
  Link WSL1477 (76)
  Link WSL1516 (68)
  Link WSL1521 (44)
  Link WSL1476 (40)
  Link WSL1515 (22)
  
  
  *************************
  Routing Time Step Summary
  *************************
  Minimum Time Step           :     0.50 sec
  Average Time Step           :     1.42 sec
  Maximum Time Step           :     5.00 sec
  Percent in Steady State     :    -0.00
  Average Iterations per Step :     2.77
  Percent Not Converging      :     6.55
  
  
  ***************************
  Subcatchment Runoff Summary
  ***************************
  
  --------------------------------------------------------------------------------------------------------
                            Total      Total      Total      Total      Total       Total     Peak  Runoff
                           Precip      Runon       Evap      Infil     Runoff      Runoff   Runoff   Coeff
  Subcatchment                 mm         mm         mm         mm         mm    10^6 ltr      MLD
  --------------------------------------------------------------------------------------------------------
  1                         47.07     103.71       0.00      16.27     106.08        1.28    16.33   0.704
  2                         47.07       0.00       0.00      12.11      24.03        0.81    12.03   0.510
  3                         47.07       0.00       0.00      12.34      22.52        1.15    17.07   0.478
  4                         47.07       0.00       0.00      11.97      24.90        0.66     9.86   0.529
  5                         47.07      58.85       0.00      15.16      69.75        1.19    14.68   0.659
  6                         47.07       0.00       0.00      12.33      22.64        1.12    16.61   0.481
  7                         47.07       0.00       0.00      20.11      18.98       30.36   409.24   0.403
  8                         47.07       0.00       0.00      12.24      23.19        0.98    14.60   0.493
  9                         47.07      22.97       0.00      13.91      38.00        1.44    18.06   0.543
  17                        47.07       0.00       0.00      12.16      23.71        0.87    12.93   0.504
  18                        47.07       0.00       0.00      12.26      23.10        1.00    14.89   0.491
  28                        47.07      95.51       0.00      17.00      90.70        2.39    30.25   0.636
  29                        47.07      38.96       0.00      14.33      50.71        1.22    14.71   0.589
  30                        47.07      90.79       0.00      15.69     101.28        0.94    12.10   0.735
  31                        47.07       0.00       0.00      12.14      23.84        0.85    12.57   0.506
  33                        47.07       0.00       0.00      11.19      28.99        0.25     3.88   0.616
  34                        47.07      51.59       0.00      15.05      62.76        1.30    15.99   0.636
  35                        47.07       0.00       0.00      12.05      24.42        0.74    11.00   0.519
  36                        47.07      53.53       0.00      16.06      54.18        3.20    38.16   0.539
  39                        47.07       0.00       0.00      12.12      23.98        0.82    12.15   0.510
  40                        47.07      12.91       0.00      13.23      31.40        1.23    16.33   0.523
  41                        47.07       0.00       0.00      11.76      26.07        0.51     7.57   0.554
  42                        47.07       0.00       0.00      11.87      25.47        0.58     8.66   0.541
  43                        47.07       0.00       0.00      10.49      31.90        0.11     1.88   0.678
  44                        47.07     890.99       0.00      25.16     843.26        3.12    39.42   0.899
  45                        47.07       0.00       0.00      11.31      28.39        0.29     4.47   0.603
  46                        47.07      43.69       0.00      14.61      56.07        1.20    14.57   0.618
  47                        47.07       0.00       0.00      11.37      28.12        0.31     4.75   0.598
  48                        47.07      19.72       0.00      12.99      40.81        0.64     8.43   0.611
  55                        47.07      29.42       0.00      12.94      51.86        0.43     5.71   0.678
  56                        47.07      47.35       0.00      14.81      58.85        1.26    15.39   0.623
  57                        47.07       0.00       0.00      12.33      22.59        1.13    16.78   0.480
  59                        47.07       0.00       0.00      11.16      29.11        0.24     3.77   0.619
  60                        47.07      64.14       0.00      13.93      83.61        0.43     5.84   0.752
  61                        47.07       0.00       0.00      12.90      18.36        3.30    49.43   0.390
  62                        47.07       0.00       0.00      12.92      18.20        3.46    51.71   0.387
  64                        47.07       0.00       0.00      11.43      27.84        0.33     5.07   0.592
  
  
  ****************************
  Subcatchment Washoff Summary
  ****************************
  
  ------------------------------------------------------------------------------------------
                                 COD         NH3-N            TN            TP            SS
  Subcatchment                    kg            kg            kg            kg            kg
  ------------------------------------------------------------------------------------------
  1                          169.204         0.000         0.000         0.000         0.000
  2                            0.000         0.000         0.000         0.000         0.000
  3                            0.000         0.000         0.000         0.000         0.000
  4                          119.162         0.000         0.000         0.000         0.000
  5                          221.247         0.000         0.000         0.000         0.000
  6                          214.629         0.000         0.000         0.000         0.000
  7                         6430.587         0.000         0.000         0.000         0.000
  8                          185.786         0.000         0.000         0.000         0.000
  9                          275.575         0.000         0.000         0.000         0.000
  17                         162.020         0.000         0.000         0.000         0.000
  18                         189.927         0.000         0.000         0.000         0.000
  28                         442.422         0.000         0.000         0.000         0.000
  29                         221.261         0.000         0.000         0.000         0.000
  30                         172.914         0.000         0.000         0.000         0.000
  31                         156.980         0.000         0.000         0.000         0.000
  33                          40.278         0.000         0.000         0.000         0.000
  34                         236.055         0.000         0.000         0.000         0.000
  35                         134.981         0.000         0.000         0.000         0.000
  36                         630.774         0.000         0.000         0.000         0.000
  39                         151.083         0.000         0.000         0.000         0.000
  40                         232.700         0.000         0.000         0.000         0.000
  41                          87.941         0.000         0.000         0.000         0.000
  42                         102.760         0.000         0.000         0.000         0.000
  43                          16.892         0.000         0.000         0.000         0.000
  44                         625.584         0.000         0.000         0.000         0.000
  45                          47.516         0.000         0.000         0.000         0.000
  46                         210.796         0.000         0.000         0.000         0.000
  47                          51.119         0.000         0.000         0.000         0.000
  48                         109.846         0.000         0.000         0.000         0.000
  55                          69.104         0.000         0.000         0.000         0.000
  56                         222.484         0.000         0.000         0.000         0.000
  57                         217.082         0.000         0.000         0.000         0.000
  59                          38.916         0.000         0.000         0.000         0.000
  60                          70.852         0.000         0.000         0.000         0.000
  61                         705.703         0.000         0.000         0.000         0.000
  62                         740.826         0.000         0.000         0.000         0.000
  64                          55.160         0.000         0.000         0.000         0.000
  ------------------------------------------------------------------------------------------
  System                   13760.166         0.000         0.000         0.000         0.000
  
  
  ******************
  Node Depth Summary
  ******************
  
  ---------------------------------------------------------------------------------
                                 Average  Maximum  Maximum  Time of Max    Reported
                                   Depth    Depth      HGL   Occurrence   Max Depth
  Node                 Type       Meters   Meters   Meters  days hr:min      Meters
  ---------------------------------------------------------------------------------
  WS01000070           JUNCTION     0.00     0.00     0.00     0  00:00        0.00
  WS01000323           JUNCTION     0.00     0.00     0.00     0  00:00        0.00
  WS01000533           JUNCTION     0.00     0.00     6.86     0  00:00        0.00
  WS01005172           JUNCTION     0.00     0.00     0.00     0  00:00        0.00
  WS01005181           JUNCTION     0.00     0.00     0.00     0  00:00        0.00
  WS01009841           JUNCTION     0.00     0.00     0.00     0  00:00        0.00
  WS02000078           JUNCTION     0.00     0.00     0.00     0  00:00        0.00
  WS02000112           JUNCTION     0.00     0.00     0.00     0  00:00        0.00
  WS02000136           JUNCTION     0.00     0.00     0.00     0  00:00        0.00
  WS02001211           JUNCTION     0.67     0.83     5.67     0  02:54        0.83
  WS02001212           JUNCTION     0.68     0.89     5.69     0  02:54        0.88
  WS02001213           JUNCTION     0.78     0.98     5.68     0  02:52        0.98
  WS02003059           JUNCTION     0.80     2.08     6.73     0  03:00        1.02
  WS02003060           JUNCTION     0.88     1.14     5.69     0  02:55        1.10
  WS02003066           JUNCTION     0.41     0.60     5.90     0  02:59        0.58
  WS02003067           JUNCTION     0.71     0.98     6.30     0  02:47        0.95
  WS02003071           JUNCTION     0.92     1.13     5.53     0  03:07        1.12
  WS02003072           JUNCTION     0.79     1.02     5.39     0  02:49        1.02
  WS02003073           JUNCTION     0.86     1.18     5.42     0  02:50        1.05
  WS02003076           JUNCTION     0.79     1.04     5.27     0  02:49        1.01
  WS02003077           JUNCTION     0.17     0.32     5.33     0  02:49        0.32
  WS02003078           JUNCTION     0.11     0.16     7.06     0  02:02        0.15
  WS02003079           JUNCTION     0.36     0.49     7.40     0  02:02        0.49
  WS02003093           JUNCTION     0.19     0.27     7.61     0  02:04        0.27
  WS02003094           JUNCTION     0.31     0.39     7.61     0  02:04        0.39
  WS02003098           JUNCTION     0.27     0.38     7.55     0  02:06        0.38
  WS02003099           JUNCTION     0.39     0.51     7.55     0  02:06        0.51
  WS02003102           JUNCTION     0.38     0.50     7.53     0  02:05        0.50
  WS02003103           JUNCTION     0.40     0.53     7.50     0  02:04        0.53
  WS02003104           JUNCTION     0.39     0.52     7.48     0  02:04        0.52
  WS02003106           JUNCTION     0.38     0.51     7.44     0  02:04        0.51
  WS02004050           JUNCTION     0.57     0.69     4.91     0  02:45        0.68
  WS02004053           JUNCTION     0.00     0.00     0.00     0  00:00        0.00
  WS02004136           JUNCTION     0.18     0.18     6.91     0  01:11        0.18
  WS02004139           JUNCTION     0.56     0.72     5.68     0  02:53        0.71
  WS02004401           JUNCTION     0.92     1.22     7.22     0  02:47        1.22
  WS02004402           JUNCTION     0.93     1.23     7.19     0  02:47        1.22
  WS02004403           JUNCTION     0.92     1.22     7.15     0  02:47        1.21
  WS02004404           JUNCTION     0.99     1.27     7.12     0  02:47        1.26
  WS02004405           JUNCTION     0.98     1.26     7.10     0  02:47        1.26
  WS02004406           JUNCTION     0.95     1.22     7.05     0  02:47        1.21
  WS02004407           JUNCTION     0.88     1.13     6.93     0  02:47        1.12
  WS02004409           JUNCTION     0.84     1.07     6.84     0  02:44        1.07
  WS02004410           JUNCTION     0.79     1.00     6.72     0  02:44        1.00
  WS02004411           JUNCTION     0.73     0.92     6.60     0  02:46        0.92
  WS02004412           JUNCTION     0.64     0.82     6.46     0  02:43        0.82
  WS02004413           JUNCTION     0.67     0.88     6.35     0  02:43        0.87
  WS02004997           JUNCTION     6.37     6.68     8.29     0  02:00        6.68
  WS02005192           JUNCTION     0.35     0.48     8.35     0  02:10        0.48
  WS02005193           JUNCTION     0.36     0.51     8.33     0  02:09        0.50
  WS02005196           JUNCTION     0.35     0.49     8.34     0  02:09        0.49
  WS02006109           JUNCTION     0.92     1.25     7.87     0  02:47        1.25
  WS02006110           JUNCTION     0.84     1.14     7.74     0  02:47        1.14
  WS02006111           JUNCTION     0.61     0.89     7.47     0  02:47        0.89
  WS02006112           JUNCTION     0.93     1.24     7.36     0  02:47        1.24
  WS02006113           JUNCTION     0.76     1.04     7.63     0  02:47        1.04
  WS02006115           JUNCTION     0.90     1.21     7.31     0  02:47        1.20
  WS02006116           JUNCTION     0.92     1.23     7.27     0  02:47        1.23
  WS02006183           JUNCTION     0.00     0.00     0.00     0  00:00        0.00
  WS02006228           JUNCTION     0.97     1.33     7.98     0  02:48        1.33
  WS02006229           JUNCTION     0.95     1.30     7.99     0  02:48        1.30
  WS02006230           JUNCTION     0.93     1.29     8.04     0  02:48        1.29
  WS02006231           JUNCTION     0.83     1.18     8.08     0  02:48        1.18
  WS02006232           JUNCTION     0.76     1.09     8.12     0  02:48        1.09
  WS02006234           JUNCTION     0.68     0.98     8.14     0  02:48        0.98
  WS02006235           JUNCTION     0.70     0.99     8.16     0  02:48        0.98
  WS02006238           JUNCTION     0.69     0.98     8.16     0  02:48        0.98
  WS02006239           JUNCTION     0.70     0.97     8.18     0  02:48        0.97
  WS02006242           JUNCTION     0.68     0.93     8.23     0  02:15        0.93
  WS02006240           JUNCTION     0.65     0.91     8.20     0  02:48        0.91
  WS02006243           JUNCTION     0.60     0.83     8.25     0  02:48        0.83
  WS02006245           JUNCTION     0.57     0.78     8.27     0  02:48        0.78
  WS02006247           JUNCTION     0.58     0.78     8.29     0  02:27        0.78
  WS02006248           JUNCTION     0.50     0.70     8.29     0  02:27        0.70
  WS02006249           JUNCTION     0.51     0.70     8.30     0  02:27        0.70
  WS02006251           JUNCTION     0.46     0.65     8.32     0  02:08        0.64
  WS02006253           JUNCTION     0.35     0.52     8.32     0  02:09        0.51
  WS02618401           JUNCTION     0.00     0.00     0.00     0  00:00        0.00
  WS8802               JUNCTION     0.00     0.00     4.38     0  00:00        0.00
  WSA1649              JUNCTION     0.00     0.00     0.00     0  00:00        0.00
  WSF200               JUNCTION     0.42     0.63     5.73     0  02:59        0.61
  XR-Inflow            JUNCTION     6.23     6.55     8.36     0  01:22        6.55
  WS02004114           JUNCTION     6.34     6.65     8.25     0  01:22        6.65
  outfall-2            OUTFALL      0.00     0.00     7.00     0  00:00        0.00
  outfall-5            OUTFALL      0.05     0.10     7.77     0  02:27        0.10
  outfall-14           OUTFALL      0.00     0.00     7.66     0  00:00        0.00
  outfall-16           OUTFALL      0.00     0.00     8.39     0  00:00        0.00
  12                   OUTFALL      0.57     0.68     0.68     0  02:52        0.68
  XR-storage           STORAGE      7.41     7.72     8.22     0  01:18        7.72
  CC-storage           STORAGE      5.27     5.63     8.81     0  01:21        5.63
  JK-storage           STORAGE      4.45     4.80     7.80     0  01:23        4.80
  
  
  *******************
  Node Inflow Summary
  *******************
  
  -------------------------------------------------------------------------------------------------
                                  Maximum  Maximum                  Lateral       Total        Flow
                                  Lateral    Total  Time of Max      Inflow      Inflow     Balance
                                   Inflow   Inflow   Occurrence      Volume      Volume       Error
  Node                 Type           MLD      MLD  days hr:min    10^6 ltr    10^6 ltr     Percent
  -------------------------------------------------------------------------------------------------
  WS01000070           JUNCTION      0.00     0.00     0  00:00           0           0       0.000 ltr
  WS01000323           JUNCTION      0.00     0.00     0  00:00           0           0       0.000 ltr
  WS01000533           JUNCTION      0.00     0.00     0  00:00           0           0       0.000 ltr
  WS01005172           JUNCTION      0.00     0.00     0  00:00           0           0       0.000 ltr
  WS01005181           JUNCTION      0.00     0.00     0  00:00           0           0       0.000 ltr
  WS01009841           JUNCTION      0.00     0.00     0  00:00           0           0       0.000 ltr
  WS02000078           JUNCTION      0.00     0.00     0  00:00           0           0       0.000 ltr
  WS02000112           JUNCTION      0.00     0.00     0  00:00           0           0       0.000 ltr
  WS02000136           JUNCTION      0.00     0.00     0  00:00           0           0       0.000 ltr
  WS02001211           JUNCTION      0.25    45.22     0  02:46      0.0407        4.94       0.687
  WS02001212           JUNCTION      0.21    45.61     0  02:54      0.0346        4.94       0.401
  WS02001213           JUNCTION      0.30    55.47     0  03:53      0.0489        4.97       0.626
  WS02003059           JUNCTION      0.23    51.03     0  02:55      0.0378        4.98       0.809
  WS02003060           JUNCTION      0.16   220.17     0  02:55      0.0252        18.2       0.352
  WS02003066           JUNCTION      0.08   211.88     0  02:46      0.0122        13.3       0.155
  WS02003067           JUNCTION      0.26   165.30     0  02:55      0.0395        13.3       0.129
  WS02003071           JUNCTION      0.35   206.56     0  02:55      0.0538        18.2       0.329
  WS02003072           JUNCTION      0.24   200.97     0  02:56      0.0382        18.2       0.220
  WS02003073           JUNCTION      0.07   235.13     0  02:50     0.00978        20.6       0.175
  WS02003076           JUNCTION      0.72   238.31     0  02:50        0.12        20.7       0.107
  WS02003077           JUNCTION      0.04    38.39     0  02:02      0.0059        2.42      -0.026
  WS02003078           JUNCTION      0.03    47.23     0  02:02     0.00419        2.41       0.072
  WS02003079           JUNCTION      0.04    33.55     0  02:01     0.00561        2.41       0.194
  WS02003093           JUNCTION      0.02     0.27     0  01:50     0.00306     0.00628      19.776
  WS02003094           JUNCTION     18.12    18.15     0  02:04        1.44        1.45       0.487
  WS02003098           JUNCTION      0.02    18.17     0  02:05     0.00293        1.44       0.345
  WS02003099           JUNCTION      0.07    18.66     0  02:11      0.0109        1.45       0.704
  WS02003102           JUNCTION     14.63    32.50     0  02:03       0.986        2.42       0.386
  WS02003103           JUNCTION      0.02    32.60     0  02:06     0.00239        2.42       0.256
  WS02003104           JUNCTION      0.02    32.84     0  02:06     0.00302        2.41       0.219
  WS02003106           JUNCTION      0.05    33.15     0  02:05     0.00727        2.42       0.267
  WS02004050           JUNCTION      0.72   258.98     0  02:50       0.119        20.8       0.486
  WS02004053           JUNCTION      0.00     0.00     0  00:00           0           0       0.000 ltr
  WS02004136           JUNCTION      0.44    32.92     0  01:08      0.0703        4.86       0.065
  WS02004139           JUNCTION      0.38    33.77     0  01:11      0.0619        4.92       0.448
  WS02004401           JUNCTION      0.05    88.79     0  02:17     0.00897        7.85       0.254
  WS02004402           JUNCTION      0.22    89.33     0  02:45      0.0335        7.86       0.235
  WS02004403           JUNCTION      0.23    89.57     0  02:45      0.0349        7.88       0.211
  WS02004404           JUNCTION      0.24    89.80     0  02:45      0.0365         7.9       0.166
  WS02004405           JUNCTION      9.93    98.49     0  02:13       0.673        8.56       0.227
  WS02004406           JUNCTION     30.37   126.35     0  02:45         2.4        10.9       0.279
  WS02004407           JUNCTION      0.11   126.45     0  02:45      0.0171        10.9       0.249
  WS02004409           JUNCTION     14.87   141.01     0  02:45        1.22        12.1       0.200
  WS02004410           JUNCTION      0.15   140.96     0  02:45      0.0226        12.1       0.198
  WS02004411           JUNCTION      0.25   142.16     0  02:44      0.0379        12.1       0.177
  WS02004412           JUNCTION     16.70   156.32     0  02:44        1.13        13.2       0.144
  WS02004413           JUNCTION      0.11   158.36     0  03:00      0.0172        13.2       0.136
  WS02004997           JUNCTION      0.42    63.57     0  02:00      0.0693        8.39       0.470
  WS02005192           JUNCTION     16.90    16.90     0  01:57        1.15        1.15       0.086
  WS02005193           JUNCTION      0.09    17.08     0  01:57      0.0146        1.18       0.154
  WS02005196           JUNCTION      0.12    17.01     0  01:57       0.019        1.16       0.180
  WS02006109           JUNCTION      0.08    74.93     0  03:02      0.0135        6.66       0.288
  WS02006110           JUNCTION      0.08    75.01     0  03:02      0.0132        6.65       0.263
  WS02006111           JUNCTION      0.24    88.27     0  02:16      0.0366        7.83       0.102
  WS02006112           JUNCTION      0.18    88.44     0  02:16      0.0273        7.85       0.245
  WS02006113           JUNCTION     17.24    88.06     0  02:16        1.17        7.81       0.177
  WS02006115           JUNCTION      0.08    88.52     0  02:16      0.0134        7.84       0.266
  WS02006116           JUNCTION      0.24    88.72     0  02:17       0.036        7.86       0.255
  WS02006183           JUNCTION      0.00     0.00     0  00:00           0           0       0.000 ltr
  WS02006228           JUNCTION     39.57    74.85     0  03:02        3.14        6.66       0.219
  WS02006229           JUNCTION      0.13    40.58     0  02:00        0.02        3.53       0.356
  WS02006230           JUNCTION      0.07    41.12     0  02:00      0.0116        3.52       0.373
  WS02006231           JUNCTION      0.13    41.06     0  02:00      0.0205        3.52       0.227
  WS02006232           JUNCTION     12.12    41.06     0  02:00       0.822        3.51       0.171
  WS02006234           JUNCTION      0.14    32.44     0  03:18      0.0216        2.69       0.181
  WS02006235           JUNCTION      0.14    32.14     0  03:18      0.0223        2.67       0.123
  WS02006238           JUNCTION      0.15    31.77     0  03:19      0.0235        2.65       0.161
  WS02006239           JUNCTION      0.11    31.93     0  01:57      0.0174        2.64       0.275
  WS02006242           JUNCTION      0.08    33.36     0  01:58      0.0129        2.62       0.343
  WS02006240           JUNCTION      0.06    32.70     0  01:57     0.00992        2.63       0.259
  WS02006243           JUNCTION      0.17    33.89     0  01:59      0.0269        2.62       0.249
  WS02006245           JUNCTION      0.07    34.05     0  01:59      0.0113         2.6       0.201
  WS02006247           JUNCTION     16.47    34.21     0  01:59        1.31        2.59       0.191
  WS02006248           JUNCTION      0.12    22.79     0  01:59      0.0192        1.67       0.195
  WS02006249           JUNCTION      0.19    22.83     0  01:59      0.0286        1.66       0.263
  WS02006251           JUNCTION      5.77    22.75     0  01:59        0.44        1.63       0.221
  WS02006253           JUNCTION      0.11    17.15     0  01:58      0.0173        1.19       0.099
  WS02618401           JUNCTION      0.00     0.00     0  00:00           0           0       0.000 ltr
  WS8802               JUNCTION      0.00     0.00     0  00:00           0           0       0.000 ltr
  WSA1649              JUNCTION      0.00     0.00     0  00:00           0           0       0.000 ltr
  WSF200               JUNCTION      0.14   190.35     0  02:43      0.0216        13.3       0.001
  XR-Inflow            JUNCTION    428.33   428.33     0  02:25        33.7        33.7       0.075
  WS02004114           JUNCTION      0.57    64.13     0  01:55      0.0916        8.44       0.289
  outfall-2            OUTFALL       0.00     0.00     0  00:00           0           0       0.000 ltr
  outfall-5            OUTFALL       0.00    10.21     0  02:27           0       0.382       0.000
  outfall-14           OUTFALL       0.00     0.00     0  00:00           0           0       0.000 ltr
  outfall-16           OUTFALL       0.00     0.00     0  00:00           0           0       0.000 ltr
  12                   OUTFALL       0.00   223.31     0  02:52           0        20.7       0.000
  XR-storage           STORAGE       0.00    64.13     0  01:55           0        8.42       0.555
  CC-storage           STORAGE      51.35    51.35     0  02:00        3.59        3.59       0.003
  JK-storage           STORAGE      52.90    52.90     0  02:00        3.63        3.63       0.003
  
  
  **********************
  Node Surcharge Summary
  **********************
  
  Surcharging occurs when water rises above the top of the highest conduit.
  ---------------------------------------------------------------------
                                               Max. Height   Min. Depth
                                   Hours       Above Crown    Below Rim
  Node                 Type      Surcharged         Meters       Meters
  ---------------------------------------------------------------------
  WS01000070           JUNCTION        4.00          0.000        0.000
  WS01000323           JUNCTION        4.00          0.000        0.000
  WS01000533           JUNCTION        4.00          0.000        2.147
  WS01005172           JUNCTION        4.00          0.000        0.000
  WS01005181           JUNCTION        4.00          0.000        0.000
  WS01009841           JUNCTION        4.00          0.000        0.000
  WS02000078           JUNCTION        4.00          0.000        0.000
  WS02000112           JUNCTION        4.00          0.000        0.000
  WS02000136           JUNCTION        4.00          0.000        0.000
  WS02003059           JUNCTION        0.05          1.081        2.636
  WS02004053           JUNCTION        4.00          0.000        0.000
  WS02004402           JUNCTION        1.31          0.226        1.514
  WS02004403           JUNCTION        1.31          0.218        1.812
  WS02004404           JUNCTION        1.47          0.272        2.508
  WS02004405           JUNCTION        1.46          0.264        2.536
  WS02004406           JUNCTION        1.37          0.217        2.233
  WS02004407           JUNCTION        1.14          0.128        2.215
  WS02004409           JUNCTION        1.00          0.075        2.285
  WS02004997           JUNCTION        3.88          5.784        0.216
  WS02006109           JUNCTION        1.48          0.448        1.390
  WS02006110           JUNCTION        1.32          0.344        1.501
  WS02006111           JUNCTION        0.97          0.094        1.783
  WS02006112           JUNCTION        1.27          0.244        1.439
  WS02006113           JUNCTION        1.18          0.242        1.691
  WS02006115           JUNCTION        1.22          0.208        2.091
  WS02006116           JUNCTION        1.29          0.229        2.121
  WS02006183           JUNCTION        4.00          0.000        0.000
  WS02006228           JUNCTION        1.58          0.525        1.706
  WS02006229           JUNCTION        1.53          0.500        1.954
  WS02006231           JUNCTION        1.51          0.479        1.064
  WS02006232           JUNCTION        1.39          0.386        1.103
  WS02006234           JUNCTION        1.26          0.279        0.978
  WS02006235           JUNCTION        1.28          0.285        1.009
  WS02006238           JUNCTION        1.27          0.280        1.154
  WS02006239           JUNCTION        1.28          0.271        1.058
  WS02006242           JUNCTION        1.24          0.226        0.623
  WS02006240           JUNCTION        1.22          0.211        1.192
  WS02006243           JUNCTION        1.14          0.131        0.649
  WS02006245           JUNCTION        1.06          0.082        0.773
  WS02006247           JUNCTION        1.06          0.077        0.683
  WS02618401           JUNCTION        4.00          0.000        0.000
  WS8802               JUNCTION        4.00          0.000        4.942
  WSA1649              JUNCTION        4.00          0.000        0.000
  XR-Inflow            JUNCTION        3.87          5.650        0.000
  WS02004114           JUNCTION        3.88          5.749        0.766
  
  
  *********************
  Node Flooding Summary
  *********************
  
  Flooding refers to all water that overflows a node, whether it ponds or not.
  --------------------------------------------------------------------------
                                                             Total   Maximum
                                 Maximum   Time of Max       Flood    Ponded
                        Hours       Rate    Occurrence      Volume     Depth
  Node                 Flooded       MLD   days hr:min    10^6 ltr    Meters
  --------------------------------------------------------------------------
  XR-Inflow               2.62    365.18      0  02:25      25.311     0.000
  XR-storage              2.69     31.65      0  01:55       3.515     0.000
  CC-storage              2.64     51.35      0  02:00       3.428     0.000
  JK-storage              2.61     52.90      0  02:00       3.494     0.000
  
  
  **********************
  Storage Volume Summary
  **********************
  
  --------------------------------------------------------------------------------------------------
                         Average     Avg  Evap Exfil       Maximum     Max    Time of Max    Maximum
                          Volume    Pcnt  Pcnt  Pcnt        Volume    Pcnt     Occurrence    Outflow
  Storage Unit           1000 m3    Full  Loss  Loss       1000 m3    Full    days hr:min        MLD
  --------------------------------------------------------------------------------------------------
  XR-storage               0.060      96     0     0         0.063     100       0  01:18      32.48
  CC-storage               0.149      94     0     0         0.159     100       0  01:21       0.00
  JK-storage               0.126      93     0     0         0.136     100       0  01:23       0.00
  
  
  ***********************
  Outfall Loading Summary
  ***********************
  
  ---------------------------------------------------------------------------------------------------------------------------------
                         Flow       Avg       Max       Total         Total         Total         Total         Total         Total
                         Freq      Flow      Flow      Volume           COD         NH3-N            TN            TP            SS
  Outfall Node           Pcnt       MLD       MLD    10^6 ltr            kg            kg            kg            kg            kg
  ---------------------------------------------------------------------------------------------------------------------------------
  outfall-2              0.00      0.00      0.00       0.000         0.000         0.000         0.000         0.000         0.000
  outfall-5             54.79      8.75     10.21       0.382        48.137         0.000         0.000         0.000         0.000
  outfall-14             0.00      0.00      0.00       0.000         0.000         0.000         0.000         0.000         0.000
  outfall-16             0.00      0.00      0.00       0.000         0.000         0.000         0.000         0.000         0.000
  12                    99.99    174.93    223.31      20.656      3561.698         0.000         0.000         0.000         0.000
  ---------------------------------------------------------------------------------------------------------------------------------
  System                30.96    183.68    232.71      21.038      3609.835         0.000         0.000         0.000         0.000
  
  
  ********************
  Link Flow Summary
  ********************
  
  -----------------------------------------------------------------------------
                                 Maximum  Time of Max   Maximum    Max/    Max/
                                  |Flow|   Occurrence   |Veloc|    Full    Full
  Link                 Type          MLD  days hr:min     m/sec    Flow   Depth
  -----------------------------------------------------------------------------
  WSL49                CONDUIT    237.59     0  02:50      2.77    2.96    0.90
  WSL1465              CONDUIT     56.00     0  03:11      1.62    0.51    1.00
  WSL1472              CONDUIT    200.75     0  02:56      2.25    2.29    0.88
  WSL1475              CONDUIT    258.27     0  02:50      3.34    2.76    0.60
  WSL1476              CONDUIT     38.44     0  02:50      1.26    0.19    0.70
  WSL1477              CONDUIT     47.21     0  02:02      3.56    1.87    0.53
  WSL1490              CONDUIT     45.40     0  02:54      1.37    0.73    0.85
  WSL1491              CONDUIT     55.19     0  03:53      1.39    0.32    0.92
  WSL1492              CONDUIT     50.81     0  02:55      1.35    0.78    0.99
  WSL1507              CONDUIT      0.25     0  01:50      0.11    0.00    0.42
  WSL1508              CONDUIT     18.16     0  02:05      0.94    0.51    0.48
  WSL1512              CONDUIT     18.60     0  02:11      0.67    0.13    0.45
  WSL1513              CONDUIT     18.67     0  02:10      0.67    1.10    0.64
  WSL1515              CONDUIT    211.81     0  02:46      3.48    2.07    0.60
  WSL1516              CONDUIT     38.35     0  02:02      6.02    0.13    0.38
  WSL1518              CONDUIT     32.58     0  02:06      1.12    0.64    0.64
  WSL1519              CONDUIT     33.11     0  02:05      1.16    0.82    0.64
  WSL1521              CONDUIT     33.52     0  02:01      1.22    0.96    0.63
  WSL1543              CONDUIT     32.83     0  02:06      1.12    1.02    0.65
  WSL1961              CONDUIT     33.39     0  01:11      2.61    0.07    0.45
  WSL1964              CONDUIT     44.98     0  02:46      1.28    0.24    0.64
  WSL2010              CONDUIT     89.37     0  02:45      1.32    1.14    1.00
  WSL2011              CONDUIT     89.59     0  02:45      1.32    0.58    1.00
  WSL2012              CONDUIT     89.81     0  02:45      1.32    1.37    1.00
  WSL2013              CONDUIT     98.48     0  02:13      1.45    2.45    1.00
  WSL2014              CONDUIT    126.35     0  02:45      1.86    2.02    1.00
  WSL2015              CONDUIT    126.39     0  02:45      1.86    1.70    1.00
  WSL2016              CONDUIT    140.83     0  02:45      2.09    1.62    1.00
  WSL2017              CONDUIT    141.94     0  02:44      2.17    1.73    0.96
  WSL2018              CONDUIT    158.26     0  03:00      2.81    0.94    0.85
  WSL2019              CONDUIT    165.08     0  02:55      2.85    0.97    0.92
  WSL2028              CONDUIT     89.14     0  02:45      1.31    0.95    1.00
  WSL2029              CONDUIT    144.12     0  02:56      2.40    1.82    0.87
  WSL2038              CONDUIT     16.89     0  01:57      1.11    0.84    0.81
  WSL2039              CONDUIT     17.04     0  01:58      1.47    0.88    0.85
  WSL2041              CONDUIT     16.99     0  01:57      1.24    0.83    0.83
  WSL2294              CONDUIT     74.94     0  03:02      1.73    2.52    1.00
  WSL2295              CONDUIT     75.01     0  03:02      1.78    3.37    1.00
  WSL2296              CONDUIT     88.28     0  02:16      2.17    0.50    1.00
  WSL2297              CONDUIT     88.44     0  02:16      1.33    1.69    1.00
  WSL2298              CONDUIT     88.06     0  02:16      2.64    4.05    1.00
  WSL2301              CONDUIT     88.52     0  02:17      1.30    0.82    1.00
  WSL2302              CONDUIT     88.74     0  02:17      1.31    1.09    1.00
  WSL2441              CONDUIT     74.86     0  03:02      1.72    1.92    1.00
  WSL2442              CONDUIT     40.47     0  02:00      1.22    1.04    1.00
  WSL2443              CONDUIT     41.05     0  02:00      1.23    0.64    1.00
  WSL2444              CONDUIT     40.95     0  02:00      1.59    0.65    1.00
  WSL2446              CONDUIT     32.64     0  03:21      1.37    0.56    1.00
  WSL2447              CONDUIT     32.32     0  03:18      1.38    1.66    1.00
  WSL2448              CONDUIT     32.02     0  03:18      1.28    0.90    1.00
  WSL2449              CONDUIT     31.64     0  03:19      1.24    1.10    1.00
  WSL2450              CONDUIT     31.82     0  01:57      1.28    0.66    1.00
  WSL2451              CONDUIT     32.64     0  01:57      1.26    2.13    1.00
  WSL2452              CONDUIT     33.28     0  01:58      1.29    0.64    1.00
  WSL2454              CONDUIT     33.72     0  01:59      1.42    0.79    1.00
  WSL2478              CONDUIT     33.98     0  01:59      1.37    1.20    1.00
  WSL2479              CONDUIT     22.63     0  01:59      0.98    0.43    1.00
  WSL2480              CONDUIT     22.67     0  01:59      1.07    1.05    1.00
  WSL2482              CONDUIT     22.65     0  01:59      1.08    0.59    0.96
  WSL2484              CONDUIT     17.10     0  01:58      1.08    0.24    0.83
  WSL2493              CONDUIT     40.52     0  02:00      0.93    0.68    1.00
  WSL2867              CONDUIT    190.22     0  02:43      4.61    0.39    0.48
  WSL2868              CONDUIT    180.05     0  02:55      2.51    0.34    0.71
  WSL348               CONDUIT     63.16     0  03:00      1.88    0.58    1.00
  WSL175               CONDUIT     63.56     0  02:00      2.29    2.14    1.00
  WSL1467              CONDUIT    206.25     0  02:55      2.19    1.09    0.93
  WSL1473              CONDUIT    200.83     0  02:51      2.34    0.82    0.88
  XRpipe               CONDUIT     64.13     0  01:55      2.54    0.16    1.00
  8                    CONDUIT     10.21     0  02:27      4.87    0.13    0.25
  19                   CONDUIT      0.00     0  00:00      0.00    0.00    0.00
  17                   CONDUIT      0.00     0  00:00      0.00    0.00    0.00
  4                    CONDUIT      0.00     0  00:00      0.00    0.00    0.00
  2                    CONDUIT    223.31     0  02:52      4.54    0.81    0.68
  XR-Pump-1            PUMP         8.12     0  00:09              1.00
  XR-Pump-3            PUMP         8.12     0  00:11              1.00
  XR-Pump-2            PUMP         8.12     0  00:10              1.00
  XR-Pump-4            PUMP         8.12     0  01:08              1.00
  CC-Pump-1            PUMP         0.00     0  00:00              0.00
  CC-Pump-2            PUMP         0.00     0  00:00              0.00
  JK-Pump-1            PUMP         0.00     0  00:00              0.00
  JK-Pump-2            PUMP         0.00     0  00:00              0.00
  
  
  ***************************
  Flow Classification Summary
  ***************************
  
  -------------------------------------------------------------------------------------
                      Adjusted    ---------- Fraction of Time in Flow Class ---------- 
                       /Actual         Up    Down  Sub   Sup   Up    Down  Norm  Inlet 
  Conduit               Length    Dry  Dry   Dry   Crit  Crit  Crit  Crit  Ltd   Ctrl  
  -------------------------------------------------------------------------------------
  WSL49                   1.00   0.00  0.00  0.00  1.00  0.00  0.00  0.00  0.00  0.00
  WSL1465                 1.00   0.00  0.00  0.00  1.00  0.00  0.00  0.00  0.10  0.00
  WSL1472                 1.00   0.00  0.00  0.00  1.00  0.00  0.00  0.00  0.00  0.00
  WSL1475                 1.00   0.00  0.00  0.00  0.11  0.89  0.00  0.00  0.00  0.00
  WSL1476                 1.00   0.00  0.00  0.00  1.00  0.00  0.00  0.00  0.95  0.00
  WSL1477                 1.00   0.00  0.00  0.00  0.00  1.00  0.00  0.00  0.38  0.00
  WSL1490                 1.00   0.00  0.00  0.00  1.00  0.00  0.00  0.00  0.01  0.00
  WSL1491                 1.00   0.00  0.00  0.00  1.00  0.00  0.00  0.00  0.05  0.00
  WSL1492                 1.00   0.00  0.00  0.00  1.00  0.00  0.00  0.00  0.00  0.00
  WSL1507                 1.00   0.00  0.00  0.00  1.00  0.00  0.00  0.00  0.31  0.00
  WSL1508                 1.00   0.00  0.00  0.00  1.00  0.00  0.00  0.00  0.00  0.00
  WSL1512                 1.00   0.00  0.00  0.00  1.00  0.00  0.00  0.00  0.41  0.00
  WSL1513                 1.00   0.00  0.00  0.00  1.00  0.00  0.00  0.00  0.00  0.00
  WSL1515                 1.00   0.00  0.00  0.00  0.19  0.81  0.00  0.00  0.04  0.00
  WSL1516                 1.00   0.00  0.00  0.00  0.00  1.00  0.00  0.00  0.87  0.00
  WSL1518                 1.00   0.00  0.00  0.00  1.00  0.00  0.00  0.00  0.29  0.00
  WSL1519                 1.00   0.00  0.00  0.00  1.00  0.00  0.00  0.00  0.28  0.00
  WSL1521                 1.00   0.00  0.00  0.00  1.00  0.00  0.00  0.00  0.02  0.00
  WSL1543                 1.00   0.00  0.00  0.00  1.00  0.00  0.00  0.00  0.02  0.00
  WSL1961                 1.00   0.00  0.00  0.00  0.71  0.29  0.00  0.00  0.98  0.00
  WSL1964                 1.00   0.00  0.00  0.00  1.00  0.00  0.00  0.00  0.05  0.00
  WSL2010                 1.00   0.00  0.00  0.00  1.00  0.00  0.00  0.00  0.00  0.00
  WSL2011                 1.00   0.00  0.00  0.00  1.00  0.00  0.00  0.00  0.26  0.00
  WSL2012                 1.00   0.00  0.00  0.00  1.00  0.00  0.00  0.00  0.00  0.00
  WSL2013                 1.00   0.00  0.00  0.00  1.00  0.00  0.00  0.00  0.00  0.00
  WSL2014                 1.00   0.00  0.00  0.00  1.00  0.00  0.00  0.00  0.00  0.00
  WSL2015                 1.00   0.00  0.00  0.00  1.00  0.00  0.00  0.00  0.02  0.00
  WSL2016                 1.00   0.00  0.00  0.00  1.00  0.00  0.00  0.00  0.01  0.00
  WSL2017                 1.00   0.00  0.00  0.00  1.00  0.00  0.00  0.00  0.04  0.00
  WSL2018                 1.00   0.00  0.00  0.00  0.63  0.37  0.00  0.00  0.08  0.00
  WSL2019                 1.00   0.00  0.00  0.00  0.88  0.12  0.00  0.00  0.11  0.00
  WSL2028                 1.00   0.00  0.00  0.00  1.00  0.00  0.00  0.00  0.06  0.00
  WSL2029                 1.00   0.00  0.00  0.00  1.00  0.00  0.00  0.00  0.00  0.00
  WSL2038                 1.00   0.00  0.00  0.00  1.00  0.00  0.00  0.00  0.01  0.00
  WSL2039                 1.00   0.00  0.00  0.00  0.76  0.24  0.00  0.00  0.01  0.00
  WSL2041                 1.00   0.00  0.00  0.00  1.00  0.00  0.00  0.00  0.25  0.00
  WSL2294                 1.00   0.00  0.00  0.00  1.00  0.00  0.00  0.00  0.00  0.00
  WSL2295                 1.00   0.00  0.00  0.00  1.00  0.00  0.00  0.00  0.00  0.00
  WSL2296                 1.00   0.00  0.00  0.00  0.89  0.11  0.00  0.00  0.37  0.00
  WSL2297                 1.00   0.00  0.00  0.00  1.00  0.00  0.00  0.00  0.00  0.00
  WSL2298                 1.00   0.00  0.00  0.00  0.66  0.34  0.00  0.00  0.00  0.00
  WSL2301                 1.00   0.00  0.00  0.00  1.00  0.00  0.00  0.00  0.09  0.00
  WSL2302                 1.00   0.00  0.00  0.00  1.00  0.00  0.00  0.00  0.00  0.00
  WSL2441                 1.00   0.00  0.00  0.00  1.00  0.00  0.00  0.00  0.00  0.00
  WSL2442                 1.00   0.00  0.00  0.00  1.00  0.00  0.00  0.00  0.18  0.00
  WSL2443                 1.00   0.00  0.00  0.00  1.00  0.00  0.00  0.00  0.28  0.00
  WSL2444                 1.00   0.00  0.00  0.00  0.84  0.16  0.00  0.00  0.17  0.00
  WSL2446                 1.00   0.00  0.00  0.00  0.93  0.07  0.00  0.00  0.05  0.00
  WSL2447                 1.00   0.00  0.00  0.00  1.00  0.00  0.00  0.00  0.00  0.00
  WSL2448                 1.00   0.00  0.00  0.00  1.00  0.00  0.00  0.00  0.00  0.00
  WSL2449                 1.00   0.00  0.00  0.00  1.00  0.00  0.00  0.00  0.03  0.00
  WSL2450                 1.00   0.00  0.00  0.00  1.00  0.00  0.00  0.00  0.31  0.00
  WSL2451                 1.00   0.00  0.00  0.00  1.00  0.00  0.00  0.00  0.00  0.00
  WSL2452                 1.00   0.00  0.00  0.00  1.00  0.00  0.00  0.00  0.33  0.00
  WSL2454                 1.00   0.00  0.00  0.00  1.00  0.00  0.00  0.00  0.02  0.00
  WSL2478                 1.00   0.00  0.00  0.00  1.00  0.00  0.00  0.00  0.00  0.00
  WSL2479                 1.00   0.00  0.00  0.00  1.00  0.00  0.00  0.00  0.32  0.00
  WSL2480                 1.00   0.00  0.00  0.00  1.00  0.00  0.00  0.00  0.00  0.00
  WSL2482                 1.00   0.00  0.00  0.00  1.00  0.00  0.00  0.00  0.30  0.00
  WSL2484                 1.00   0.00  0.00  0.00  1.00  0.00  0.00  0.00  0.51  0.00
  WSL2493                 1.00   0.00  0.00  0.00  1.00  0.00  0.00  0.00  0.05  0.00
  WSL2867                 1.00   0.00  0.00  0.00  0.00  1.00  0.00  0.00  0.16  0.00
  WSL2868                 1.00   0.00  0.00  0.00  0.99  0.01  0.00  0.00  0.41  0.00
  WSL348                  1.00   0.00  0.00  0.00  1.00  0.00  0.00  0.00  0.01  0.00
  WSL175                  1.00   0.00  0.00  0.00  1.00  0.00  0.00  0.00  0.00  0.00
  WSL1467                 1.00   0.00  0.00  0.00  1.00  0.00  0.00  0.00  0.06  0.00
  WSL1473                 1.00   0.00  0.00  0.00  1.00  0.00  0.00  0.00  0.06  0.00
  XRpipe                  1.00   0.00  0.00  0.00  1.00  0.00  0.00  0.00  0.01  0.00
  8                       1.00   0.45  0.00  0.00  0.00  0.55  0.00  0.00  0.03  0.00
  19                      1.00   1.00  0.00  0.00  0.00  0.00  0.00  0.00  0.00  0.00
  17                      1.00   1.00  0.00  0.00  0.00  0.00  0.00  0.00  0.00  0.00
  4                       1.00   1.00  0.00  0.00  0.00  0.00  0.00  0.00  0.00  0.00
  2                       1.00   0.00  0.00  0.00  0.00  1.00  0.00  0.00  0.19  0.00
  
  
  *************************
  Conduit Surcharge Summary
  *************************
  
  ----------------------------------------------------------------------------
                                                           Hours        Hours 
                         --------- Hours Full --------   Above Full   Capacity
  Conduit                Both Ends  Upstream  Dnstream   Normal Flow   Limited
  ----------------------------------------------------------------------------
  WSL49                       0.01      0.01      0.01      2.43         0.01
  WSL1465                     0.04      0.05      1.05      0.01         0.02
  WSL1472                     0.01      0.01      0.01      2.32         0.01
  WSL1475                     0.01      0.01      0.01      2.31         0.01
  WSL1476                     0.01      0.01      2.05      0.01         0.01
  WSL1477                     0.01      0.01      0.01      0.92         0.01
  WSL1492                     0.01      0.01      0.05      0.01         0.01
  WSL1513                     0.01      0.01      0.01      0.76         0.01
  WSL1515                     0.01      0.01      0.01      1.75         0.01
  WSL1543                     0.01      0.01      0.01      0.11         0.01
  WSL2010                     1.31      1.31      1.31      1.45         1.30
  WSL2011                     1.31      1.31      1.47      0.01         0.01
  WSL2012                     1.46      1.47      1.46      1.72         1.46
  WSL2013                     1.37      1.46      1.37      2.31         1.37
  WSL2014                     1.14      1.37      1.14      2.22         1.14
  WSL2015                     1.00      1.14      1.00      2.07         1.00
  WSL2016                     0.01      1.00      0.01      1.95         0.01
  WSL2017                     0.01      0.01      0.01      2.06         0.01
  WSL2028                     1.29      1.29      1.31      0.01         0.01
  WSL2029                     0.01      0.01      0.01      2.14         0.01
  WSL2294                     1.32      1.48      1.32      2.32         1.32
  WSL2295                     1.18      1.32      1.18      2.41         1.18
  WSL2296                     0.97      0.97      1.62      0.01         0.01
  WSL2297                     1.22      1.27      1.22      2.06         1.22
  WSL2298                     0.97      1.18      0.97      2.51         0.97
  WSL2301                     1.22      1.22      1.29      0.01         0.01
  WSL2302                     1.29      1.29      1.29      1.33         1.26
  WSL2441                     1.48      1.58      1.48      2.23         1.48
  WSL2442                     1.66      1.66      1.70      0.08         0.09
  WSL2443                     1.51      1.51      1.66      0.01         0.01
  WSL2444                     1.39      1.39      1.51      0.01         0.01
  WSL2446                     1.26      1.26      1.39      0.01         0.01
  WSL2447                     1.26      1.28      1.26      1.95         1.25
  WSL2448                     1.27      1.27      1.28      0.01         0.01
  WSL2449                     1.27      1.28      1.27      0.45         0.23
  WSL2450                     1.22      1.22      1.28      0.01         0.01
  WSL2451                     1.22      1.24      1.22      2.34         1.21
  WSL2452                     1.14      1.14      1.24      0.01         0.01
  WSL2454                     1.06      1.06      1.14      0.01         0.01
  WSL2478                     1.06      1.06      1.06      0.40         0.07
  WSL2479                     0.01      0.01      1.06      0.01         0.01
  WSL2480                     0.01      0.01      0.01      0.19         0.01
  WSL2493                     1.53      1.53      1.58      0.01         0.01
  WSL348                      3.87      3.87      3.88      0.01         0.01
  WSL175                      3.88      3.88      3.88      2.84         2.94
  WSL1467                     0.01      0.01      0.01      0.34         0.01
  XRpipe                      3.88      3.88      3.96      0.01         0.01
  
  
  ***************
  Pumping Summary
  ***************
  
  ---------------------------------------------------------------------------------------------------------
                                                  Min       Avg       Max     Total     Power    % Time Off
                        Percent   Number of      Flow      Flow      Flow    Volume     Usage    Pump Curve
  Pump                 Utilized   Start-Ups       MLD       MLD       MLD  10^6 ltr     Kw-hr    Low   High
  ---------------------------------------------------------------------------------------------------------
  XR-Pump-1               96.04           1      0.00      8.12      8.12     1.300      4.94    0.0    0.0
  XR-Pump-3               91.28          13      0.00      8.12      8.12     1.235      4.64    0.0    0.0
  XR-Pump-2               95.73           1      0.00      8.12      8.12     1.295      4.92    0.0    0.0
  XR-Pump-4               71.20           2      0.00      8.12      8.12     0.963      3.39    0.0    0.0
  CC-Pump-1                0.00           0      0.00      0.00      0.00     0.000      0.00    0.0    0.0
  CC-Pump-2                0.00           0      0.00      0.00      0.00     0.000      0.00    0.0    0.0
  JK-Pump-1                0.00           0      0.00      0.00      0.00     0.000      0.00    0.0    0.0
  JK-Pump-2                0.00           0      0.00      0.00      0.00     0.000      0.00    0.0    0.0
  
  
  ***************************
  Link Pollutant Load Summary
  ***************************
  
  ------------------------------------------------------------------------------------------
                                 COD         NH3-N            TN            TP            SS
  Link                            kg            kg            kg            kg            kg
  ------------------------------------------------------------------------------------------
  WSL49                     3512.971         0.000         0.000         0.000         0.000
  WSL1465                    904.635         0.000         0.000         0.000         0.000
  WSL1472                   3047.241         0.000         0.000         0.000         0.000
  WSL1475                   3533.385         0.000         0.000         0.000         0.000
  WSL1476                    468.063         0.000         0.000         0.000         0.000
  WSL1477                    465.369         0.000         0.000         0.000         0.000
  WSL1490                    891.075         0.000         0.000         0.000         0.000
  WSL1491                    892.579         0.000         0.000         0.000         0.000
  WSL1492                    902.432         0.000         0.000         0.000         0.000
  WSL1507                      3.394         0.000         0.000         0.000         0.000
  WSL1508                    279.513         0.000         0.000         0.000         0.000
  WSL1512                    278.474         0.000         0.000         0.000         0.000
  WSL1513                    280.704         0.000         0.000         0.000         0.000
  WSL1515                   2134.488         0.000         0.000         0.000         0.000
  WSL1516                    465.150         0.000         0.000         0.000         0.000
  WSL1518                    465.451         0.000         0.000         0.000         0.000
  WSL1519                    465.081         0.000         0.000         0.000         0.000
  WSL1521                    465.644         0.000         0.000         0.000         0.000
  WSL1543                    464.069         0.000         0.000         0.000         0.000
  WSL1961                    875.350         0.000         0.000         0.000         0.000
  WSL1964                    886.339         0.000         0.000         0.000         0.000
  WSL2010                   1108.734         0.000         0.000         0.000         0.000
  WSL2011                   1112.626         0.000         0.000         0.000         0.000
  WSL2012                   1117.342         0.000         0.000         0.000         0.000
  WSL2013                   1238.302         0.000         0.000         0.000         0.000
  WSL2014                   1681.990         0.000         0.000         0.000         0.000
  WSL2015                   1681.528         0.000         0.000         0.000         0.000
  WSL2016                   1907.051         0.000         0.000         0.000         0.000
  WSL2017                   1908.445         0.000         0.000         0.000         0.000
  WSL2018                   2128.681         0.000         0.000         0.000         0.000
  WSL2019                   2129.947         0.000         0.000         0.000         0.000
  WSL2028                   1104.549         0.000         0.000         0.000         0.000
  WSL2029                   1913.104         0.000         0.000         0.000         0.000
  WSL2038                    220.582         0.000         0.000         0.000         0.000
  WSL2039                    226.032         0.000         0.000         0.000         0.000
  WSL2041                    224.018         0.000         0.000         0.000         0.000
  WSL2294                   1087.963         0.000         0.000         0.000         0.000
  WSL2295                   1088.569         0.000         0.000         0.000         0.000
  WSL2296                   1096.802         0.000         0.000         0.000         0.000
  WSL2297                   1101.349         0.000         0.000         0.000         0.000
  WSL2298                   1092.241         0.000         0.000         0.000         0.000
  WSL2301                   1101.023         0.000         0.000         0.000         0.000
  WSL2302                   1105.714         0.000         0.000         0.000         0.000
  WSL2441                   1087.017         0.000         0.000         0.000         0.000
  WSL2442                    455.734         0.000         0.000         0.000         0.000
  WSL2443                    456.078         0.000         0.000         0.000         0.000
  WSL2444                    453.445         0.000         0.000         0.000         0.000
  WSL2446                    451.968         0.000         0.000         0.000         0.000
  WSL2447                    448.429         0.000         0.000         0.000         0.000
  WSL2448                    444.183         0.000         0.000         0.000         0.000
  WSL2449                    442.078         0.000         0.000         0.000         0.000
  WSL2450                    439.759         0.000         0.000         0.000         0.000
  WSL2451                    439.208         0.000         0.000         0.000         0.000
  WSL2452                    437.778         0.000         0.000         0.000         0.000
  WSL2454                    433.807         0.000         0.000         0.000         0.000
  WSL2478                    431.728         0.000         0.000         0.000         0.000
  WSL2479                    259.228         0.000         0.000         0.000         0.000
  WSL2480                    304.039         0.000         0.000         0.000         0.000
  WSL2482                    301.149         0.000         0.000         0.000         0.000
  WSL2484                    229.272         0.000         0.000         0.000         0.000
  WSL2493                    457.877         0.000         0.000         0.000         0.000
  WSL2867                   2133.471         0.000         0.000         0.000         0.000
  WSL2868                   2140.464         0.000         0.000         0.000         0.000
  WSL348                    1501.480         0.000         0.000         0.000         0.000
  WSL175                    1510.045         0.000         0.000         0.000         0.000
  WSL1467                   3043.530         0.000         0.000         0.000         0.000
  WSL1473                   3048.435         0.000         0.000         0.000         0.000
  XRpipe                    1524.086         0.000         0.000         0.000         0.000
  8                           48.137         0.000         0.000         0.000         0.000
  19                           0.000         0.000         0.000         0.000         0.000
  17                           0.000         0.000         0.000         0.000         0.000
  4                            0.000         0.000         0.000         0.000         0.000
  2                         3561.698         0.000         0.000         0.000         0.000
  XR-Pump-1                  231.978         0.000         0.000         0.000         0.000
  XR-Pump-3                  221.227         0.000         0.000         0.000         0.000
  XR-Pump-2                  231.271         0.000         0.000         0.000         0.000
  XR-Pump-4                  175.914         0.000         0.000         0.000         0.000
  CC-Pump-1                    0.000         0.000         0.000         0.000         0.000
  CC-Pump-2                    0.000         0.000         0.000         0.000         0.000
  JK-Pump-1                    0.000         0.000         0.000         0.000         0.000
  JK-Pump-2                    0.000         0.000         0.000         0.000         0.000
  

  Analysis begun on:  Mon Mar 18 14:37:41 2019
  Analysis ended on:  Mon Mar 18 14:37:42 2019
  Total elapsed time: 00:00:01