
  EPA STORM WATER MANAGEMENT MODEL - VERSION 5.1 (Build 5.2.0.dev1)
  --------------------------------------------------------------

  
  *********************************************************
  NOTE: The summary statistics displayed in this report are
  based on results found at every computational time step,  
  not just on results from each reporting time step.
  *********************************************************
  
  ****************
  Analysis Options
  ****************
  Flow Units ............... MLD
  Process Models:
    Rainfall/Runoff ........ YES
    RDII ................... NO
    Snowmelt ............... NO
    Groundwater ............ NO
    Flow Routing ........... YES
    Ponding Allowed ........ NO
    Water Quality .......... YES
  Infiltration Method ...... GREEN_AMPT
  Flow Routing Method ...... DYNWAVE
  Starting Date ............ 08/28/2015 08:00:00
  Ending Date .............. 08/28/2015 12:00:00
  Antecedent Dry Days ...... 4.0
  Report Time Step ......... 00:01:00
  Wet Time Step ............ 00:01:00
  Dry Time Step ............ 00:01:00
  Routing Time Step ........ 5.00 sec
  Variable Time Step ....... YES
  Maximum Trials ........... 8
  Number of Threads ........ 1
  Head Tolerance ........... 0.001500 m
  
  
  **************************        Volume         Depth
  Runoff Quantity Continuity     hectare-m            mm
  **************************     ---------       -------
  Total Precipitation ......        11.899        42.188
  Evaporation Loss .........         0.000         0.000
  Infiltration Loss ........         4.369        15.488
  Surface Runoff ...........         4.405        15.617
  Final Storage ............         3.132        11.104
  Continuity Error (%) .....        -0.051
  
  
  **************************           COD         NH3-N            TN            TP            SS
  Runoff Quality Continuity             kg            kg            kg            kg            kg
  **************************    ----------    ----------    ----------    ----------    ----------
  Initial Buildup ..........     13074.240         0.000         0.000         0.000         0.000
  Surface Buildup ..........       102.277         0.000         0.000         0.000         0.000
  Wet Deposition ...........         0.000         0.000         0.000         0.000         0.000
  Sweeping Removal .........         0.000         0.000         0.000         0.000         0.000
  Infiltration Loss ........       379.306         0.000         0.000         0.000         0.000
  BMP Removal ..............         0.000         0.000         0.000         0.000         0.000
  Surface Runoff ...........      9531.745         0.000         0.000         0.000         0.000
  Remaining Buildup ........      3268.724         0.000         0.000         0.000         0.000
  Continuity Error (%) .....        -0.025         0.000         0.000         0.000         0.000
  
  
  **************************        Volume        Volume
  Flow Routing Continuity        hectare-m      10^6 ltr
  **************************     ---------     ---------
  Dry Weather Inflow .......         0.000         0.000
  Wet Weather Inflow .......         4.396        43.956
  Groundwater Inflow .......         0.000         0.000
  RDII Inflow ..............         0.000         0.000
  External Inflow ..........         0.561         5.611
  External Outflow .........         1.816        18.156
  Flooding Loss ............         2.989        29.892
  Evaporation Loss .........         0.000         0.000
  Exfiltration Loss ........         0.000         0.000
  Initial Stored Volume ....         0.000         0.000
  Final Stored Volume ......         0.155         1.545
  Continuity Error (%) .....        -0.054
  
  
  **************************           COD         NH3-N            TN            TP            SS
  Quality Routing Continuity            kg            kg            kg            kg            kg
  **************************    ----------    ----------    ----------    ----------    ----------
  Dry Weather Inflow .......         0.000         0.000         0.000         0.000         0.000
  Wet Weather Inflow .......      9524.542         0.000         0.000         0.000         0.000
  Groundwater Inflow .......         0.000         0.000         0.000         0.000         0.000
  RDII Inflow ..............         0.000         0.000         0.000         0.000         0.000
  External Inflow ..........       936.998         0.000         0.000         0.000         0.000
  External Outflow .........      3419.654         0.000         0.000         0.000         0.000
  Flooding Loss ............      6928.542         0.000         0.000         0.000         0.000
  Exfiltration Loss ........         0.000         0.000         0.000         0.000         0.000
  Mass Reacted .............         0.000         0.000         0.000         0.000         0.000
  Initial Stored Mass ......         0.000         0.000         0.000         0.000         0.000
  Final Stored Mass ........       119.259         0.000         0.000         0.000         0.000
  Continuity Error (%) .....        -0.057         0.000         0.000         0.000         0.000
  
  
  ***************************
  Time-Step Critical Elements
  ***************************
  Link WSL1477 (36.53%)
  Link 8 (30.27%)
  Link WSL1516 (12.31%)
  Link WSL2448 (3.33%)
  Link WSL2012 (1.53%)
  
  
  ********************************
  Highest Flow Instability Indexes
  ********************************
  Link WSL1477 (75)
  Link WSL1516 (66)
  Link WSL1521 (29)
  Link WSL1476 (28)
  Link WSL1515 (25)
  
  
  *************************
  Routing Time Step Summary
  *************************
  Minimum Time Step           :     0.50 sec
  Average Time Step           :     1.75 sec
  Maximum Time Step           :     5.00 sec
  Percent in Steady State     :    -0.00
  Average Iterations per Step :     2.83
  Percent Not Converging      :     6.90
  
  
  ***************************
  Subcatchment Runoff Summary
  ***************************
  
  --------------------------------------------------------------------------------------------------------
                            Total      Total      Total      Total      Total       Total     Peak  Runoff
                           Precip      Runon       Evap      Infil     Runoff      Runoff   Runoff   Coeff
  Subcatchment                 mm         mm         mm         mm         mm    10^6 ltr      MLD
  --------------------------------------------------------------------------------------------------------
  1                         42.19      84.47       0.00      14.93      84.30        1.02    15.22   0.666
  2                         42.19       0.00       0.00      11.27      20.22        0.68    11.34   0.479
  3                         42.19       0.00       0.00      11.46      18.93        0.97    16.02   0.449
  4                         42.19       0.00       0.00      11.16      20.98        0.56     9.31   0.497
  5                         42.19      49.47       0.00      14.03      57.10        0.97    14.17   0.623
  6                         42.19       0.00       0.00      11.44      19.03        0.94    15.60   0.451
  7                         42.19       0.00       0.00      18.07      15.98       25.56   394.47   0.379
  8                         42.19       0.00       0.00      11.38      19.50        0.83    13.73   0.462
  9                         42.19      19.32       0.00      12.84      31.25        1.18    17.39   0.508
  17                        42.19       0.00       0.00      11.31      19.95        0.73    12.17   0.473
  18                        42.19       0.00       0.00      11.39      19.43        0.84    14.00   0.461
  28                        42.19      77.59       0.00      15.49      71.29        1.87    27.44   0.595
  29                        42.19      32.03       0.00      13.17      40.91        0.99    14.06   0.551
  30                        42.19      76.38       0.00      14.57      83.32        0.77    11.67   0.703
  31                        42.19       0.00       0.00      11.30      20.06        0.71    11.84   0.475
  33                        42.19       0.00       0.00      10.53      24.65        0.21     3.70   0.584
  34                        42.19      43.51       0.00      13.91      51.39        1.06    15.44   0.600
  35                        42.19       0.00       0.00      11.22      20.56        0.62    10.38   0.487
  36                        42.19      44.22       0.00      14.65      43.28        2.55    35.93   0.501
  39                        42.19       0.00       0.00      11.28      20.19        0.69    11.45   0.478
  40                        42.19      10.90       0.00      12.24      26.02        1.02    15.59   0.490
  41                        42.19       0.00       0.00      11.00      22.01        0.43     7.16   0.522
  42                        42.19       0.00       0.00      11.08      21.48        0.49     8.19   0.509
  43                        42.19       0.00       0.00       9.95      27.37        0.10     1.79   0.649
  44                        42.19     713.22       0.00      23.13     666.27        2.47    37.15   0.882
  45                        42.19       0.00       0.00      10.63      24.10        0.25     4.25   0.571
  46                        42.19      36.55       0.00      13.49      45.69        0.98    14.02   0.580
  47                        42.19       0.00       0.00      10.68      23.85        0.26     4.52   0.565
  48                        42.19      16.72       0.00      12.10      33.93        0.54     8.15   0.576
  55                        42.19      25.01       0.00      12.10      43.31        0.36     5.53   0.645
  56                        42.19      39.72       0.00      13.66      47.96        1.03    14.81   0.586
  57                        42.19       0.00       0.00      11.45      18.99        0.95    15.76   0.450
  59                        42.19       0.00       0.00      10.51      24.76        0.21     3.59   0.587
  60                        42.19      54.34       0.00      13.03      69.68        0.36     5.63   0.722
  61                        42.19       0.00       0.00      11.88      15.45        2.78    46.24   0.366
  62                        42.19       0.00       0.00      11.90      15.32        2.91    48.39   0.363
  64                        42.19       0.00       0.00      10.73      23.60        0.28     4.82   0.559
  
  
  ****************************
  Subcatchment Washoff Summary
  ****************************
  
  ------------------------------------------------------------------------------------------
                                 COD         NH3-N            TN            TP            SS
  Subcatchment                    kg            kg            kg            kg            kg
  ------------------------------------------------------------------------------------------
  1                          148.560         0.000         0.000         0.000         0.000
  2                            0.000         0.000         0.000         0.000         0.000
  3                            0.000         0.000         0.000         0.000         0.000
  4                          113.833         0.000         0.000         0.000         0.000
  5                          203.547         0.000         0.000         0.000         0.000
  6                          201.590         0.000         0.000         0.000         0.000
  7                         5885.765         0.000         0.000         0.000         0.000
  8                          175.283         0.000         0.000         0.000         0.000
  9                          259.009         0.000         0.000         0.000         0.000
  17                         153.476         0.000         0.000         0.000         0.000
  18                         179.072         0.000         0.000         0.000         0.000
  28                         396.755         0.000         0.000         0.000         0.000
  29                         202.702         0.000         0.000         0.000         0.000
  30                         160.075         0.000         0.000         0.000         0.000
  31                         148.836         0.000         0.000         0.000         0.000
  33                          39.317         0.000         0.000         0.000         0.000
  34                         219.718         0.000         0.000         0.000         0.000
  35                         128.518         0.000         0.000         0.000         0.000
  36                         579.427         0.000         0.000         0.000         0.000
  39                         143.401         0.000         0.000         0.000         0.000
  40                         221.569         0.000         0.000         0.000         0.000
  41                          84.632         0.000         0.000         0.000         0.000
  42                          98.532         0.000         0.000         0.000         0.000
  43                          16.639         0.000         0.000         0.000         0.000
  44                         569.533         0.000         0.000         0.000         0.000
  45                          46.267         0.000         0.000         0.000         0.000
  46                         198.675         0.000         0.000         0.000         0.000
  47                          49.716         0.000         0.000         0.000         0.000
  48                         105.570         0.000         0.000         0.000         0.000
  55                          66.587         0.000         0.000         0.000         0.000
  56                         207.697         0.000         0.000         0.000         0.000
  57                         203.822         0.000         0.000         0.000         0.000
  59                          38.005         0.000         0.000         0.000         0.000
  60                          67.766         0.000         0.000         0.000         0.000
  61                         638.346         0.000         0.000         0.000         0.000
  62                         669.116         0.000         0.000         0.000         0.000
  64                          53.577         0.000         0.000         0.000         0.000
  ------------------------------------------------------------------------------------------
  System                   12674.932         0.000         0.000         0.000         0.000
  
  
  ******************
  Node Depth Summary
  ******************
  
  ---------------------------------------------------------------------------------
                                 Average  Maximum  Maximum  Time of Max    Reported
                                   Depth    Depth      HGL   Occurrence   Max Depth
  Node                 Type       Meters   Meters   Meters  days hr:min      Meters
  ---------------------------------------------------------------------------------
  WS01000070           JUNCTION     0.00     0.00     0.00     0  00:00        0.00
  WS01000323           JUNCTION     0.00     0.00     0.00     0  00:00        0.00
  WS01000533           JUNCTION     0.00     0.00     6.86     0  00:00        0.00
  WS01005172           JUNCTION     0.00     0.00     0.00     0  00:00        0.00
  WS01005181           JUNCTION     0.00     0.00     0.00     0  00:00        0.00
  WS01009841           JUNCTION     0.00     0.00     0.00     0  00:00        0.00
  WS02000078           JUNCTION     0.00     0.00     0.00     0  00:00        0.00
  WS02000112           JUNCTION     0.00     0.00     0.00     0  00:00        0.00
  WS02000136           JUNCTION     0.00     0.00     0.00     0  00:00        0.00
  WS02001211           JUNCTION     0.61     0.81     5.65     0  02:44        0.81
  WS02001212           JUNCTION     0.61     0.85     5.65     0  02:44        0.84
  WS02001213           JUNCTION     0.70     0.94     5.64     0  02:32        0.94
  WS02003059           JUNCTION     0.72     1.00     5.65     0  02:43        0.97
  WS02003060           JUNCTION     0.80     1.07     5.62     0  02:43        1.06
  WS02003066           JUNCTION     0.37     0.57     5.87     0  02:51        0.55
  WS02003067           JUNCTION     0.63     0.96     6.28     0  02:40        0.95
  WS02003071           JUNCTION     0.84     1.11     5.51     0  02:28        1.09
  WS02003072           JUNCTION     0.72     1.03     5.40     0  02:27        1.03
  WS02003073           JUNCTION     0.79     1.16     5.40     0  03:19        1.08
  WS02003076           JUNCTION     0.73     1.06     5.29     0  03:19        0.95
  WS02003077           JUNCTION     0.15     0.39     5.40     0  03:20        0.33
  WS02003078           JUNCTION     0.10     0.15     7.05     0  02:31        0.14
  WS02003079           JUNCTION     0.33     0.48     7.39     0  02:32        0.48
  WS02003093           JUNCTION     0.16     0.26     7.60     0  02:31        0.26
  WS02003094           JUNCTION     0.27     0.38     7.60     0  02:31        0.38
  WS02003098           JUNCTION     0.23     0.37     7.54     0  02:30        0.37
  WS02003099           JUNCTION     0.35     0.50     7.54     0  02:29        0.50
  WS02003102           JUNCTION     0.34     0.49     7.52     0  02:28        0.49
  WS02003103           JUNCTION     0.36     0.52     7.49     0  02:28        0.52
  WS02003104           JUNCTION     0.35     0.51     7.47     0  02:27        0.50
  WS02003106           JUNCTION     0.35     0.50     7.43     0  02:27        0.50
  WS02004050           JUNCTION     0.52     0.68     4.90     0  02:34        0.67
  WS02004053           JUNCTION     0.00     0.00     0.00     0  00:00        0.00
  WS02004136           JUNCTION     0.17     0.18     6.91     0  01:13        0.18
  WS02004139           JUNCTION     0.51     0.68     5.64     0  02:45        0.68
  WS02004401           JUNCTION     0.78     1.17     7.17     0  02:42        1.17
  WS02004402           JUNCTION     0.79     1.18     7.14     0  02:42        1.17
  WS02004403           JUNCTION     0.79     1.17     7.10     0  02:42        1.17
  WS02004404           JUNCTION     0.85     1.22     7.07     0  02:42        1.22
  WS02004405           JUNCTION     0.85     1.22     7.06     0  02:42        1.21
  WS02004406           JUNCTION     0.82     1.17     7.00     0  02:42        1.17
  WS02004407           JUNCTION     0.77     1.09     6.89     0  02:42        1.09
  WS02004409           JUNCTION     0.74     1.04     6.81     0  02:42        1.04
  WS02004410           JUNCTION     0.70     0.97     6.69     0  02:42        0.97
  WS02004411           JUNCTION     0.65     0.90     6.58     0  02:41        0.89
  WS02004412           JUNCTION     0.57     0.81     6.45     0  02:41        0.80
  WS02004413           JUNCTION     0.59     0.86     6.33     0  02:40        0.86
  WS02004997           JUNCTION     6.26     6.69     8.30     0  02:00        6.68
  WS02005192           JUNCTION     0.29     0.46     8.33     0  02:34        0.46
  WS02005193           JUNCTION     0.29     0.49     8.31     0  02:35        0.49
  WS02005196           JUNCTION     0.29     0.47     8.32     0  02:35        0.47
  WS02006109           JUNCTION     0.77     1.19     7.81     0  02:42        1.19
  WS02006110           JUNCTION     0.70     1.09     7.69     0  02:42        1.09
  WS02006111           JUNCTION     0.49     0.85     7.43     0  02:42        0.84
  WS02006112           JUNCTION     0.79     1.20     7.32     0  02:42        1.19
  WS02006113           JUNCTION     0.62     1.00     7.59     0  02:42        0.99
  WS02006115           JUNCTION     0.75     1.16     7.26     0  02:42        1.15
  WS02006116           JUNCTION     0.78     1.18     7.22     0  02:42        1.17
  WS02006183           JUNCTION     0.00     0.00     0.00     0  00:00        0.00
  WS02006228           JUNCTION     0.81     1.26     7.91     0  02:42        1.26
  WS02006229           JUNCTION     0.78     1.24     7.93     0  02:42        1.24
  WS02006230           JUNCTION     0.77     1.23     7.98     0  02:43        1.23
  WS02006231           JUNCTION     0.67     1.13     8.03     0  02:43        1.13
  WS02006232           JUNCTION     0.60     1.04     8.07     0  02:43        1.04
  WS02006234           JUNCTION     0.54     0.94     8.10     0  02:43        0.94
  WS02006235           JUNCTION     0.56     0.95     8.12     0  02:43        0.95
  WS02006238           JUNCTION     0.56     0.95     8.13     0  02:43        0.95
  WS02006239           JUNCTION     0.57     0.94     8.15     0  02:43        0.94
  WS02006242           JUNCTION     0.56     0.90     8.20     0  02:43        0.90
  WS02006240           JUNCTION     0.52     0.88     8.17     0  02:43        0.88
  WS02006243           JUNCTION     0.48     0.81     8.23     0  02:43        0.81
  WS02006245           JUNCTION     0.47     0.77     8.26     0  02:43        0.77
  WS02006247           JUNCTION     0.48     0.76     8.27     0  02:43        0.76
  WS02006248           JUNCTION     0.41     0.69     8.28     0  02:43        0.69
  WS02006249           JUNCTION     0.42     0.68     8.28     0  02:43        0.68
  WS02006251           JUNCTION     0.38     0.63     8.30     0  02:35        0.63
  WS02006253           JUNCTION     0.27     0.50     8.30     0  02:35        0.50
  WS02618401           JUNCTION     0.00     0.00     0.00     0  00:00        0.00
  WS8802               JUNCTION     0.00     0.00     4.38     0  00:00        0.00
  WSA1649              JUNCTION     0.00     0.00     0.00     0  00:00        0.00
  WSF200               JUNCTION     0.38     0.58     5.68     0  02:42        0.58
  XR-Inflow            JUNCTION     6.12     6.55     8.36     0  01:32        6.55
  WS02004114           JUNCTION     6.23     6.65     8.25     0  02:00        6.65
  outfall-2            OUTFALL      0.00     0.00     7.00     0  00:00        0.00
  outfall-5            OUTFALL      0.03     0.09     7.75     0  02:43        0.09
  outfall-14           OUTFALL      0.00     0.00     7.66     0  00:00        0.00
  outfall-16           OUTFALL      0.00     0.00     8.39     0  00:00        0.00
  12                   OUTFALL      0.52     0.67     0.67     0  02:34        0.67
  XR-storage           STORAGE      7.30     7.72     8.22     0  01:24        7.72
  CC-storage           STORAGE      5.18     5.63     8.81     0  01:26        5.63
  JK-storage           STORAGE      4.35     4.80     7.80     0  01:29        4.80
  
  
  *******************
  Node Inflow Summary
  *******************
  
  -------------------------------------------------------------------------------------------------
                                  Maximum  Maximum                  Lateral       Total        Flow
                                  Lateral    Total  Time of Max      Inflow      Inflow     Balance
                                   Inflow   Inflow   Occurrence      Volume      Volume       Error
  Node                 Type           MLD      MLD  days hr:min    10^6 ltr    10^6 ltr     Percent
  -------------------------------------------------------------------------------------------------
  WS01000070           JUNCTION      0.00     0.00     0  00:00           0           0       0.000 ltr
  WS01000323           JUNCTION      0.00     0.00     0  00:00           0           0       0.000 ltr
  WS01000533           JUNCTION      0.00     0.00     0  00:00           0           0       0.000 ltr
  WS01005172           JUNCTION      0.00     0.00     0  00:00           0           0       0.000 ltr
  WS01005181           JUNCTION      0.00     0.00     0  00:00           0           0       0.000 ltr
  WS01009841           JUNCTION      0.00     0.00     0  00:00           0           0       0.000 ltr
  WS02000078           JUNCTION      0.00     0.00     0  00:00           0           0       0.000 ltr
  WS02000112           JUNCTION      0.00     0.00     0  00:00           0           0       0.000 ltr
  WS02000136           JUNCTION      0.00     0.00     0  00:00           0           0       0.000 ltr
  WS02001211           JUNCTION      0.25    42.17     0  03:24      0.0407        4.92       0.664
  WS02001212           JUNCTION      0.21    41.59     0  03:24      0.0346        4.93       0.436
  WS02001213           JUNCTION      0.30    53.90     0  03:43      0.0489        4.95       0.538
  WS02003059           JUNCTION      0.23    46.88     0  03:09      0.0378        4.97       0.803
  WS02003060           JUNCTION      0.16   201.56     0  03:10      0.0252          16       0.375
  WS02003066           JUNCTION      0.08   206.97     0  02:40      0.0122          11       0.212
  WS02003067           JUNCTION      0.26   159.34     0  02:43      0.0395          11       0.116
  WS02003071           JUNCTION      0.35   191.32     0  02:54      0.0538          16       0.373
  WS02003072           JUNCTION      0.24   190.02     0  02:54      0.0382        15.9       0.260
  WS02003073           JUNCTION      0.07   221.10     0  02:33     0.00978        17.9       0.228
  WS02003076           JUNCTION      0.72   240.71     0  02:26        0.12          18       0.136
  WS02003077           JUNCTION      0.04    36.23     0  02:31      0.0059        2.01       0.031
  WS02003078           JUNCTION      0.03    44.93     0  02:31     0.00419           2       0.018
  WS02003079           JUNCTION      0.04    31.88     0  02:26     0.00561           2       0.226
  WS02003093           JUNCTION      0.02     0.24     0  02:14     0.00306     0.00589      19.571
  WS02003094           JUNCTION     17.44    17.47     0  02:29        1.19        1.19       0.572
  WS02003098           JUNCTION      0.02    17.49     0  02:29     0.00293        1.19       0.403
  WS02003099           JUNCTION      0.07    17.91     0  02:36      0.0109        1.19       0.821
  WS02003102           JUNCTION     13.76    30.85     0  02:27        0.83        2.01       0.447
  WS02003103           JUNCTION      0.02    30.99     0  02:29     0.00239        2.01       0.296
  WS02003104           JUNCTION      0.02    31.20     0  02:28     0.00302           2       0.254
  WS02003106           JUNCTION      0.05    31.23     0  02:34     0.00727        2.01       0.311
  WS02004050           JUNCTION      0.72   250.86     0  02:28       0.119        18.1       0.514
  WS02004053           JUNCTION      0.00     0.00     0  00:00           0           0       0.000 ltr
  WS02004136           JUNCTION      0.44    32.92     0  01:11      0.0703        4.85       0.066
  WS02004139           JUNCTION      0.38    33.60     0  01:11      0.0619        4.91       0.434
  WS02004401           JUNCTION      0.05    87.99     0  02:36     0.00897         6.6       0.285
  WS02004402           JUNCTION      0.22    88.57     0  02:43      0.0335        6.62       0.265
  WS02004403           JUNCTION      0.23    88.80     0  02:43      0.0349        6.63       0.238
  WS02004404           JUNCTION      0.24    89.03     0  02:43      0.0365        6.65       0.189
  WS02004405           JUNCTION      9.38    97.19     0  02:36       0.569        7.21       0.259
  WS02004406           JUNCTION     27.56   122.84     0  02:55        1.89        9.08       0.323
  WS02004407           JUNCTION      0.11   122.93     0  02:55      0.0171        9.07       0.290
  WS02004409           JUNCTION     14.36   137.12     0  02:55           1          10       0.233
  WS02004410           JUNCTION      0.15   137.48     0  02:55      0.0226          10       0.230
  WS02004411           JUNCTION      0.25   138.84     0  02:54      0.0379        10.1       0.205
  WS02004412           JUNCTION     15.69   153.23     0  02:43       0.953          11       0.166
  WS02004413           JUNCTION      0.11   154.63     0  02:43      0.0172          11       0.160
  WS02004997           JUNCTION      0.42    63.60     0  02:00      0.0693         8.2       0.480
  WS02005192           JUNCTION     15.86    15.86     0  02:22       0.966       0.966       0.098
  WS02005193           JUNCTION      0.09    16.03     0  02:21      0.0146       0.996       0.177
  WS02005196           JUNCTION      0.12    15.96     0  02:22       0.019       0.984       0.206
  WS02006109           JUNCTION      0.08    74.22     0  03:05      0.0135        5.59       0.330
  WS02006110           JUNCTION      0.08    74.30     0  03:05      0.0132        5.58       0.302
  WS02006111           JUNCTION      0.24    87.48     0  02:36      0.0366        6.58       0.114
  WS02006112           JUNCTION      0.18    87.64     0  02:36      0.0273         6.6       0.277
  WS02006113           JUNCTION     16.18    87.28     0  02:36        0.99        6.56       0.203
  WS02006115           JUNCTION      0.08    87.73     0  02:36      0.0134        6.59       0.299
  WS02006116           JUNCTION      0.24    87.94     0  02:36       0.036        6.61       0.287
  WS02006183           JUNCTION      0.00     0.00     0  00:00           0           0       0.000 ltr
  WS02006228           JUNCTION     37.30    74.13     0  03:05        2.49        5.59       0.251
  WS02006229           JUNCTION      0.13    39.80     0  02:25        0.02        3.11       0.387
  WS02006230           JUNCTION      0.07    40.30     0  02:24      0.0116        3.11       0.403
  WS02006231           JUNCTION      0.13    40.23     0  02:24      0.0205         3.1       0.235
  WS02006232           JUNCTION     11.42    40.25     0  02:25       0.694        3.09       0.186
  WS02006234           JUNCTION      0.14    33.03     0  03:16      0.0216         2.4       0.198
  WS02006235           JUNCTION      0.14    32.70     0  03:15      0.0223        2.38       0.135
  WS02006238           JUNCTION      0.15    32.36     0  03:16      0.0235        2.36       0.176
  WS02006239           JUNCTION      0.11    31.99     0  03:15      0.0174        2.34       0.303
  WS02006242           JUNCTION      0.08    32.57     0  02:22      0.0129        2.33       0.379
  WS02006240           JUNCTION      0.06    31.96     0  02:22     0.00992        2.33       0.284
  WS02006243           JUNCTION      0.17    33.06     0  02:23      0.0269        2.33       0.274
  WS02006245           JUNCTION      0.07    33.20     0  02:24      0.0113         2.3       0.220
  WS02006247           JUNCTION     15.36    33.33     0  02:24        1.04         2.3       0.210
  WS02006248           JUNCTION      0.12    21.61     0  02:23      0.0192        1.42       0.221
  WS02006249           JUNCTION      0.19    21.64     0  02:23      0.0286         1.4       0.300
  WS02006251           JUNCTION      5.59    21.57     0  02:23       0.369        1.38       0.254
  WS02006253           JUNCTION      0.11    16.09     0  02:22      0.0173        1.01       0.113
  WS02618401           JUNCTION      0.00     0.00     0  00:00           0           0       0.000 ltr
  WS8802               JUNCTION      0.00     0.00     0  00:00           0           0       0.000 ltr
  WSA1649              JUNCTION      0.00     0.00     0  00:00           0           0       0.000 ltr
  WSF200               JUNCTION      0.14   176.09     0  03:05      0.0216          11       0.003
  XR-Inflow            JUNCTION    413.55   413.55     0  02:45        28.9        28.9       0.088
  WS02004114           JUNCTION      0.57    64.13     0  02:00      0.0916        8.26       0.296
  outfall-2            OUTFALL       0.00     0.00     0  00:00           0           0       0.000 ltr
  outfall-5            OUTFALL       0.00     7.93     0  02:43           0       0.161       0.000
  outfall-14           OUTFALL       0.00     0.00     0  00:00           0           0       0.000 ltr
  outfall-16           OUTFALL       0.00     0.00     0  00:00           0           0       0.000 ltr
  12                   OUTFALL       0.00   219.90     0  02:34           0          18       0.000
  XR-storage           STORAGE       0.00    64.19     0  02:00           0        8.23       0.568
  CC-storage           STORAGE      47.86    47.86     0  02:24        3.06        3.06       0.010
  JK-storage           STORAGE      49.39    49.39     0  02:24        3.08        3.08       0.001
  
  
  **********************
  Node Surcharge Summary
  **********************
  
  Surcharging occurs when water rises above the top of the highest conduit.
  ---------------------------------------------------------------------
                                               Max. Height   Min. Depth
                                   Hours       Above Crown    Below Rim
  Node                 Type      Surcharged         Meters       Meters
  ---------------------------------------------------------------------
  WS01000070           JUNCTION        4.00          0.000        0.000
  WS01000323           JUNCTION        4.00          0.000        0.000
  WS01000533           JUNCTION        4.00          0.000        2.147
  WS01005172           JUNCTION        4.00          0.000        0.000
  WS01005181           JUNCTION        4.00          0.000        0.000
  WS01009841           JUNCTION        4.00          0.000        0.000
  WS02000078           JUNCTION        4.00          0.000        0.000
  WS02000112           JUNCTION        4.00          0.000        0.000
  WS02000136           JUNCTION        4.00          0.000        0.000
  WS02004053           JUNCTION        4.00          0.000        0.000
  WS02004402           JUNCTION        0.84          0.175        1.565
  WS02004403           JUNCTION        0.82          0.168        1.862
  WS02004404           JUNCTION        0.99          0.224        2.556
  WS02004405           JUNCTION        0.98          0.217        2.583
  WS02004406           JUNCTION        0.89          0.172        2.278
  WS02004407           JUNCTION        0.66          0.093        2.250
  WS02004409           JUNCTION        0.50          0.043        2.317
  WS02004997           JUNCTION        3.88          5.789        0.211
  WS02006109           JUNCTION        1.01          0.390        1.448
  WS02006110           JUNCTION        0.84          0.292        1.553
  WS02006111           JUNCTION        0.48          0.048        1.829
  WS02006112           JUNCTION        0.80          0.197        1.486
  WS02006113           JUNCTION        0.72          0.196        1.737
  WS02006115           JUNCTION        0.76          0.160        2.139
  WS02006116           JUNCTION        0.81          0.180        2.170
  WS02006183           JUNCTION        4.00          0.000        0.000
  WS02006228           JUNCTION        1.11          0.463        1.768
  WS02006229           JUNCTION        1.06          0.438        2.016
  WS02006231           JUNCTION        1.05          0.431        1.112
  WS02006232           JUNCTION        0.93          0.345        1.144
  WS02006234           JUNCTION        0.79          0.242        1.015
  WS02006235           JUNCTION        0.81          0.250        1.044
  WS02006238           JUNCTION        0.81          0.246        1.188
  WS02006239           JUNCTION        0.81          0.241        1.088
  WS02006242           JUNCTION        0.78          0.203        0.646
  WS02006240           JUNCTION        0.75          0.184        1.219
  WS02006243           JUNCTION        0.66          0.112        0.668
  WS02006245           JUNCTION        0.59          0.068        0.787
  WS02006247           JUNCTION        0.59          0.064        0.696
  WS02618401           JUNCTION        4.00          0.000        0.000
  WS8802               JUNCTION        4.00          0.000        4.942
  WSA1649              JUNCTION        4.00          0.000        0.000
  XR-Inflow            JUNCTION        3.87          5.650        0.000
  WS02004114           JUNCTION        3.88          5.751        0.764
  
  
  *********************
  Node Flooding Summary
  *********************
  
  Flooding refers to all water that overflows a node, whether it ponds or not.
  --------------------------------------------------------------------------
                                                             Total   Maximum
                                 Maximum   Time of Max       Flood    Ponded
                        Hours       Rate    Occurrence      Volume     Depth
  Node                 Flooded       MLD   days hr:min    10^6 ltr    Meters
  --------------------------------------------------------------------------
  XR-Inflow               2.45    350.40      0  02:45      20.698     0.000
  XR-storage              2.59     31.70      0  02:00       3.345     0.000
  CC-storage              2.56     47.86      0  02:24       2.905     0.000
  JK-storage              2.51     49.39      0  02:24       2.947     0.000
  
  
  **********************
  Storage Volume Summary
  **********************
  
  --------------------------------------------------------------------------------------------------
                         Average     Avg  Evap Exfil       Maximum     Max    Time of Max    Maximum
                          Volume    Pcnt  Pcnt  Pcnt        Volume    Pcnt     Occurrence    Outflow
  Storage Unit           1000 m3    Full  Loss  Loss       1000 m3    Full    days hr:min        MLD
  --------------------------------------------------------------------------------------------------
  XR-storage               0.059      95     0     0         0.063     100       0  01:24      32.48
  CC-storage               0.146      92     0     0         0.159     100       0  01:26       0.00
  JK-storage               0.123      91     0     0         0.136     100       0  01:29       0.00
  
  
  ***********************
  Outfall Loading Summary
  ***********************
  
  ---------------------------------------------------------------------------------------------------------------------------------
                         Flow       Avg       Max       Total         Total         Total         Total         Total         Total
                         Freq      Flow      Flow      Volume           COD         NH3-N            TN            TP            SS
  Outfall Node           Pcnt       MLD       MLD    10^6 ltr            kg            kg            kg            kg            kg
  ---------------------------------------------------------------------------------------------------------------------------------
  outfall-2              0.00      0.00      0.00       0.000         0.000         0.000         0.000         0.000         0.000
  outfall-5             35.09      6.52      7.93       0.161        25.315         0.000         0.000         0.000         0.000
  outfall-14             0.00      0.00      0.00       0.000         0.000         0.000         0.000         0.000         0.000
  outfall-16             0.00      0.00      0.00       0.000         0.000         0.000         0.000         0.000         0.000
  12                    99.99    153.25    219.90      17.995      3394.747         0.000         0.000         0.000         0.000
  ---------------------------------------------------------------------------------------------------------------------------------
  System                27.01    159.77    227.01      18.156      3420.062         0.000         0.000         0.000         0.000
  
  
  ********************
  Link Flow Summary
  ********************
  
  -----------------------------------------------------------------------------
                                 Maximum  Time of Max   Maximum    Max/    Max/
                                  |Flow|   Occurrence   |Veloc|    Full    Full
  Link                 Type          MLD  days hr:min     m/sec    Flow   Depth
  -----------------------------------------------------------------------------
  WSL49                CONDUIT    239.99     0  02:26      3.04    2.98    0.91
  WSL1465              CONDUIT     48.06     0  03:26      1.62    0.44    1.00
  WSL1472              CONDUIT    189.79     0  02:54      2.19    2.16    0.86
  WSL1475              CONDUIT    250.14     0  02:28      3.37    2.67    0.58
  WSL1476              CONDUIT     39.29     0  03:20      1.31    0.19    0.74
  WSL1477              CONDUIT     44.91     0  02:31      3.50    1.77    0.52
  WSL1490              CONDUIT     41.38     0  03:24      1.37    0.67    0.81
  WSL1491              CONDUIT     53.62     0  03:43      1.39    0.31    0.88
  WSL1492              CONDUIT     46.66     0  03:09      1.35    0.72    0.96
  WSL1507              CONDUIT      0.22     0  02:14      0.11    0.00    0.40
  WSL1508              CONDUIT     17.48     0  02:29      0.93    0.49    0.47
  WSL1512              CONDUIT     17.85     0  02:36      0.67    0.12    0.43
  WSL1513              CONDUIT     17.96     0  02:37      0.65    1.06    0.62
  WSL1515              CONDUIT    206.90     0  02:40      3.45    2.02    0.59
  WSL1516              CONDUIT     36.20     0  02:31      5.94    0.13    0.41
  WSL1518              CONDUIT     30.97     0  02:29      1.10    0.61    0.63
  WSL1519              CONDUIT     31.19     0  02:34      1.14    0.78    0.63
  WSL1521              CONDUIT     31.85     0  02:26      1.21    0.92    0.61
  WSL1543              CONDUIT     31.19     0  02:28      1.10    0.97    0.64
  WSL1961              CONDUIT     33.21     0  01:11      2.61    0.07    0.43
  WSL1964              CONDUIT     41.93     0  03:24      1.28    0.23    0.60
  WSL2010              CONDUIT     88.60     0  02:43      1.31    1.13    1.00
  WSL2011              CONDUIT     88.82     0  02:43      1.31    0.57    1.00
  WSL2012              CONDUIT     89.04     0  02:43      1.31    1.36    1.00
  WSL2013              CONDUIT     97.18     0  02:36      1.43    2.41    1.00
  WSL2014              CONDUIT    122.83     0  02:55      1.81    1.96    1.00
  WSL2015              CONDUIT    122.87     0  02:55      1.81    1.65    1.00
  WSL2016              CONDUIT    137.35     0  02:55      2.04    1.58    0.99
  WSL2017              CONDUIT    138.62     0  02:54      2.15    1.69    0.93
  WSL2018              CONDUIT    154.53     0  02:43      2.77    0.92    0.82
  WSL2019              CONDUIT    159.11     0  02:43      2.75    0.94    0.89
  WSL2028              CONDUIT     88.38     0  02:43      1.30    0.94    1.00
  WSL2029              CONDUIT    139.77     0  02:43      2.39    1.77    0.85
  WSL2038              CONDUIT     15.85     0  02:22      1.09    0.79    0.78
  WSL2039              CONDUIT     15.99     0  02:22      1.45    0.82    0.82
  WSL2041              CONDUIT     15.94     0  02:21      1.22    0.78    0.80
  WSL2294              CONDUIT     74.23     0  03:05      1.71    2.49    1.00
  WSL2295              CONDUIT     74.32     0  03:05      1.78    3.34    1.00
  WSL2296              CONDUIT     87.48     0  02:36      2.16    0.49    1.00
  WSL2297              CONDUIT     87.65     0  02:36      1.32    1.68    1.00
  WSL2298              CONDUIT     87.27     0  02:36      2.64    4.02    1.00
  WSL2301              CONDUIT     87.73     0  02:36      1.29    0.81    1.00
  WSL2302              CONDUIT     87.94     0  02:36      1.30    1.08    1.00
  WSL2441              CONDUIT     74.14     0  03:05      1.71    1.90    1.00
  WSL2442              CONDUIT     39.68     0  02:25      1.19    1.02    1.00
  WSL2443              CONDUIT     40.23     0  02:24      1.21    0.63    1.00
  WSL2444              CONDUIT     40.12     0  02:24      1.56    0.64    1.00
  WSL2446              CONDUIT     33.36     0  03:18      1.38    0.57    1.00
  WSL2447              CONDUIT     32.91     0  03:16      1.38    1.69    1.00
  WSL2448              CONDUIT     32.58     0  03:15      1.28    0.92    1.00
  WSL2449              CONDUIT     32.24     0  03:16      1.23    1.12    1.00
  WSL2450              CONDUIT     31.89     0  03:15      1.27    0.66    1.00
  WSL2451              CONDUIT     31.90     0  02:22      1.25    2.08    1.00
  WSL2452              CONDUIT     32.50     0  02:22      1.28    0.62    1.00
  WSL2454              CONDUIT     32.91     0  02:23      1.41    0.77    1.00
  WSL2478              CONDUIT     33.14     0  02:24      1.36    1.17    1.00
  WSL2479              CONDUIT     21.48     0  02:23      0.96    0.41    0.99
  WSL2480              CONDUIT     21.50     0  02:23      1.04    0.99    0.98
  WSL2482              CONDUIT     21.48     0  02:23      1.06    0.56    0.94
  WSL2484              CONDUIT     16.04     0  02:22      1.06    0.23    0.80
  WSL2493              CONDUIT     39.76     0  02:24      0.92    0.67    1.00
  WSL2867              CONDUIT    175.98     0  03:05      4.58    0.36    0.45
  WSL2868              CONDUIT    165.51     0  02:43      2.41    0.31    0.67
  WSL348               CONDUIT     63.19     0  02:00      1.88    0.58    1.00
  WSL175               CONDUIT     63.58     0  02:00      2.29    2.14    1.00
  WSL1467              CONDUIT    191.01     0  02:54      2.10    1.01    0.89
  WSL1473              CONDUIT    189.40     0  02:54      2.34    0.78    0.87
  XRpipe               CONDUIT     64.19     0  02:00      2.54    0.16    1.00
  8                    CONDUIT      7.93     0  02:43      4.52    0.10    0.22
  19                   CONDUIT      0.00     0  00:00      0.00    0.00    0.00
  17                   CONDUIT      0.00     0  00:00      0.00    0.00    0.00
  4                    CONDUIT      0.00     0  00:00      0.00    0.00    0.00
  2                    CONDUIT    219.90     0  02:34      4.52    0.79    0.68
  XR-Pump-1            PUMP         8.12     0  00:09              1.00
  XR-Pump-3            PUMP         8.12     0  00:11              1.00
  XR-Pump-2            PUMP         8.12     0  00:10              1.00
  XR-Pump-4            PUMP         8.12     0  01:11              1.00
  CC-Pump-1            PUMP         0.00     0  00:00              0.00
  CC-Pump-2            PUMP         0.00     0  00:00              0.00
  JK-Pump-1            PUMP         0.00     0  00:00              0.00
  JK-Pump-2            PUMP         0.00     0  00:00              0.00
  
  
  ***************************
  Flow Classification Summary
  ***************************
  
  -------------------------------------------------------------------------------------
                      Adjusted    ---------- Fraction of Time in Flow Class ---------- 
                       /Actual         Up    Down  Sub   Sup   Up    Down  Norm  Inlet 
  Conduit               Length    Dry  Dry   Dry   Crit  Crit  Crit  Crit  Ltd   Ctrl  
  -------------------------------------------------------------------------------------
  WSL49                   1.00   0.00  0.00  0.00  1.00  0.00  0.00  0.00  0.00  0.00
  WSL1465                 1.00   0.00  0.00  0.00  1.00  0.00  0.00  0.00  0.10  0.00
  WSL1472                 1.00   0.00  0.00  0.00  1.00  0.00  0.00  0.00  0.00  0.00
  WSL1475                 1.00   0.00  0.00  0.00  0.11  0.89  0.00  0.00  0.00  0.00
  WSL1476                 1.00   0.00  0.00  0.00  1.00  0.00  0.00  0.00  0.98  0.00
  WSL1477                 1.00   0.00  0.00  0.00  0.00  1.00  0.00  0.00  0.45  0.00
  WSL1490                 1.00   0.00  0.00  0.00  1.00  0.00  0.00  0.00  0.01  0.00
  WSL1491                 1.00   0.00  0.00  0.00  1.00  0.00  0.00  0.00  0.05  0.00
  WSL1492                 1.00   0.00  0.00  0.00  1.00  0.00  0.00  0.00  0.00  0.00
  WSL1507                 1.00   0.00  0.00  0.00  1.00  0.00  0.00  0.00  0.34  0.00
  WSL1508                 1.00   0.00  0.00  0.00  1.00  0.00  0.00  0.00  0.00  0.00
  WSL1512                 1.00   0.00  0.00  0.00  1.00  0.00  0.00  0.00  0.51  0.00
  WSL1513                 1.00   0.00  0.00  0.00  1.00  0.00  0.00  0.00  0.00  0.00
  WSL1515                 1.00   0.00  0.00  0.00  0.17  0.83  0.00  0.00  0.04  0.00
  WSL1516                 1.00   0.00  0.00  0.00  0.00  1.00  0.00  0.00  0.94  0.00
  WSL1518                 1.00   0.00  0.00  0.00  1.00  0.00  0.00  0.00  0.31  0.00
  WSL1519                 1.00   0.00  0.00  0.00  1.00  0.00  0.00  0.00  0.29  0.00
  WSL1521                 1.00   0.00  0.00  0.00  1.00  0.00  0.00  0.00  0.02  0.00
  WSL1543                 1.00   0.00  0.00  0.00  1.00  0.00  0.00  0.00  0.02  0.00
  WSL1961                 1.00   0.00  0.00  0.00  0.54  0.46  0.00  0.00  0.98  0.00
  WSL1964                 1.00   0.00  0.00  0.00  1.00  0.00  0.00  0.00  0.05  0.00
  WSL2010                 1.00   0.00  0.00  0.00  1.00  0.00  0.00  0.00  0.00  0.00
  WSL2011                 1.00   0.00  0.00  0.00  1.00  0.00  0.00  0.00  0.26  0.00
  WSL2012                 1.00   0.00  0.00  0.00  1.00  0.00  0.00  0.00  0.00  0.00
  WSL2013                 1.00   0.00  0.00  0.00  1.00  0.00  0.00  0.00  0.00  0.00
  WSL2014                 1.00   0.00  0.00  0.00  1.00  0.00  0.00  0.00  0.00  0.00
  WSL2015                 1.00   0.00  0.00  0.00  1.00  0.00  0.00  0.00  0.02  0.00
  WSL2016                 1.00   0.00  0.00  0.00  1.00  0.00  0.00  0.00  0.01  0.00
  WSL2017                 1.00   0.00  0.00  0.00  1.00  0.00  0.00  0.00  0.04  0.00
  WSL2018                 1.00   0.00  0.00  0.00  0.43  0.57  0.00  0.00  0.07  0.00
  WSL2019                 1.00   0.00  0.00  0.00  0.83  0.17  0.00  0.00  0.11  0.00
  WSL2028                 1.00   0.00  0.00  0.00  1.00  0.00  0.00  0.00  0.06  0.00
  WSL2029                 1.00   0.00  0.00  0.00  1.00  0.00  0.00  0.00  0.00  0.00
  WSL2038                 1.00   0.00  0.00  0.00  1.00  0.00  0.00  0.00  0.01  0.00
  WSL2039                 1.00   0.00  0.00  0.00  0.63  0.37  0.00  0.00  0.01  0.00
  WSL2041                 1.00   0.00  0.00  0.00  1.00  0.00  0.00  0.00  0.26  0.00
  WSL2294                 1.00   0.00  0.00  0.00  1.00  0.00  0.00  0.00  0.00  0.00
  WSL2295                 1.00   0.00  0.00  0.00  1.00  0.00  0.00  0.00  0.00  0.00
  WSL2296                 1.00   0.00  0.00  0.00  0.79  0.21  0.00  0.00  0.44  0.00
  WSL2297                 1.00   0.00  0.00  0.00  1.00  0.00  0.00  0.00  0.00  0.00
  WSL2298                 1.00   0.00  0.00  0.00  0.49  0.51  0.00  0.00  0.00  0.00
  WSL2301                 1.00   0.00  0.00  0.00  1.00  0.00  0.00  0.00  0.09  0.00
  WSL2302                 1.00   0.00  0.00  0.00  1.00  0.00  0.00  0.00  0.00  0.00
  WSL2441                 1.00   0.00  0.00  0.00  1.00  0.00  0.00  0.00  0.00  0.00
  WSL2442                 1.00   0.00  0.00  0.00  1.00  0.00  0.00  0.00  0.19  0.00
  WSL2443                 1.00   0.00  0.00  0.00  1.00  0.00  0.00  0.00  0.30  0.00
  WSL2444                 1.00   0.00  0.00  0.00  0.75  0.25  0.00  0.00  0.17  0.00
  WSL2446                 1.00   0.00  0.00  0.00  0.92  0.08  0.00  0.00  0.04  0.00
  WSL2447                 1.00   0.00  0.00  0.00  1.00  0.00  0.00  0.00  0.00  0.00
  WSL2448                 1.00   0.00  0.00  0.00  1.00  0.00  0.00  0.00  0.00  0.00
  WSL2449                 1.00   0.00  0.00  0.00  1.00  0.00  0.00  0.00  0.03  0.00
  WSL2450                 1.00   0.00  0.00  0.00  1.00  0.00  0.00  0.00  0.33  0.00
  WSL2451                 1.00   0.00  0.00  0.00  1.00  0.00  0.00  0.00  0.00  0.00
  WSL2452                 1.00   0.00  0.00  0.00  1.00  0.00  0.00  0.00  0.39  0.00
  WSL2454                 1.00   0.00  0.00  0.00  1.00  0.00  0.00  0.00  0.02  0.00
  WSL2478                 1.00   0.00  0.00  0.00  1.00  0.00  0.00  0.00  0.00  0.00
  WSL2479                 1.00   0.00  0.00  0.00  1.00  0.00  0.00  0.00  0.35  0.00
  WSL2480                 1.00   0.00  0.00  0.00  1.00  0.00  0.00  0.00  0.00  0.00
  WSL2482                 1.00   0.00  0.00  0.00  1.00  0.00  0.00  0.00  0.33  0.00
  WSL2484                 1.00   0.00  0.00  0.00  1.00  0.00  0.00  0.00  0.61  0.00
  WSL2493                 1.00   0.00  0.00  0.00  1.00  0.00  0.00  0.00  0.05  0.00
  WSL2867                 1.00   0.00  0.00  0.00  0.00  1.00  0.00  0.00  0.17  0.00
  WSL2868                 1.00   0.00  0.00  0.00  0.97  0.03  0.00  0.00  0.49  0.00
  WSL348                  1.00   0.00  0.00  0.00  1.00  0.00  0.00  0.00  0.01  0.00
  WSL175                  1.00   0.00  0.00  0.00  1.00  0.00  0.00  0.00  0.00  0.00
  WSL1467                 1.00   0.00  0.00  0.00  1.00  0.00  0.00  0.00  0.06  0.00
  WSL1473                 1.00   0.00  0.00  0.00  1.00  0.00  0.00  0.00  0.06  0.00
  XRpipe                  1.00   0.00  0.00  0.00  1.00  0.00  0.00  0.00  0.01  0.00
  8                       1.00   0.65  0.00  0.00  0.00  0.35  0.00  0.00  0.03  0.00
  19                      1.00   1.00  0.00  0.00  0.00  0.00  0.00  0.00  0.00  0.00
  17                      1.00   1.00  0.00  0.00  0.00  0.00  0.00  0.00  0.00  0.00
  4                       1.00   1.00  0.00  0.00  0.00  0.00  0.00  0.00  0.00  0.00
  2                       1.00   0.00  0.00  0.00  0.00  1.00  0.00  0.00  0.17  0.00
  
  
  *************************
  Conduit Surcharge Summary
  *************************
  
  ----------------------------------------------------------------------------
                                                           Hours        Hours 
                         --------- Hours Full --------   Above Full   Capacity
  Conduit                Both Ends  Upstream  Dnstream   Normal Flow   Limited
  ----------------------------------------------------------------------------
  WSL49                       0.01      0.01      0.01      2.17         0.01
  WSL1465                     0.01      0.01      0.63      0.01         0.01
  WSL1472                     0.01      0.01      0.01      1.99         0.01
  WSL1475                     0.01      0.01      0.01      2.02         0.01
  WSL1476                     0.01      0.01      1.48      0.01         0.01
  WSL1477                     0.01      0.01      0.01      0.62         0.01
  WSL1513                     0.01      0.01      0.01      0.40         0.01
  WSL1515                     0.01      0.01      0.01      1.31         0.01
  WSL2010                     0.82      0.84      0.82      0.99         0.82
  WSL2011                     0.82      0.82      0.99      0.01         0.01
  WSL2012                     0.98      0.99      0.98      1.25         0.98
  WSL2013                     0.89      0.98      0.89      1.97         0.89
  WSL2014                     0.66      0.89      0.66      1.85         0.66
  WSL2015                     0.50      0.66      0.50      1.57         0.50
  WSL2016                     0.01      0.50      0.01      1.47         0.01
  WSL2017                     0.01      0.01      0.01      1.57         0.01
  WSL2028                     0.80      0.80      0.84      0.01         0.01
  WSL2029                     0.01      0.01      0.01      1.65         0.01
  WSL2294                     0.84      1.01      0.84      1.98         0.84
  WSL2295                     0.72      0.84      0.72      2.12         0.72
  WSL2296                     0.48      0.48      1.15      0.01         0.01
  WSL2297                     0.76      0.80      0.76      1.57         0.76
  WSL2298                     0.48      0.72      0.48      2.26         0.48
  WSL2301                     0.76      0.76      0.81      0.01         0.01
  WSL2302                     0.80      0.81      0.80      0.86         0.78
  WSL2441                     1.01      1.11      1.01      1.86         1.01
  WSL2442                     1.20      1.20      1.24      0.07         0.09
  WSL2443                     1.05      1.05      1.20      0.01         0.01
  WSL2444                     0.93      0.93      1.05      0.01         0.01
  WSL2446                     0.79      0.79      0.93      0.01         0.01
  WSL2447                     0.79      0.81      0.79      1.50         0.79
  WSL2448                     0.81      0.81      0.81      0.01         0.01
  WSL2449                     0.80      0.81      0.81      0.45         0.21
  WSL2450                     0.75      0.75      0.81      0.01         0.01
  WSL2451                     0.75      0.78      0.75      1.92         0.75
  WSL2452                     0.66      0.66      0.78      0.01         0.01
  WSL2454                     0.59      0.59      0.66      0.01         0.01
  WSL2478                     0.59      0.59      0.59      0.42         0.07
  WSL2479                     0.01      0.01      0.59      0.01         0.01
  WSL2493                     1.06      1.06      1.11      0.01         0.01
  WSL348                      3.87      3.87      3.88      0.01         0.01
  WSL175                      3.88      3.88      3.88      2.78         2.87
  WSL1467                     0.01      0.01      0.01      0.05         0.01
  XRpipe                      3.88      3.88      3.96      0.01         0.01
  
  
  ***************
  Pumping Summary
  ***************
  
  ---------------------------------------------------------------------------------------------------------
                                                  Min       Avg       Max     Total     Power    % Time Off
                        Percent   Number of      Flow      Flow      Flow    Volume     Usage    Pump Curve
  Pump                 Utilized   Start-Ups       MLD       MLD       MLD  10^6 ltr     Kw-hr    Low   High
  ---------------------------------------------------------------------------------------------------------
  XR-Pump-1               96.04           1      0.00      8.12      8.12     1.300      4.96    0.0    0.0
  XR-Pump-3               91.28          13      0.00      8.12      8.12     1.235      4.66    0.0    0.0
  XR-Pump-2               95.73           1      0.00      8.12      8.12     1.295      4.94    0.0    0.0
  XR-Pump-4               69.96           2      0.00      8.12      8.12     0.947      3.34    0.0    0.0
  CC-Pump-1                0.00           0      0.00      0.00      0.00     0.000      0.00    0.0    0.0
  CC-Pump-2                0.00           0      0.00      0.00      0.00     0.000      0.00    0.0    0.0
  JK-Pump-1                0.00           0      0.00      0.00      0.00     0.000      0.00    0.0    0.0
  JK-Pump-2                0.00           0      0.00      0.00      0.00     0.000      0.00    0.0    0.0
  
  
  ***************************
  Link Pollutant Load Summary
  ***************************
  
  ------------------------------------------------------------------------------------------
                                 COD         NH3-N            TN            TP            SS
  Link                            kg            kg            kg            kg            kg
  ------------------------------------------------------------------------------------------
  WSL49                     3351.950         0.000         0.000         0.000         0.000
  WSL1465                    930.559         0.000         0.000         0.000         0.000
  WSL1472                   2914.803         0.000         0.000         0.000         0.000
  WSL1475                   3371.871         0.000         0.000         0.000         0.000
  WSL1476                    440.303         0.000         0.000         0.000         0.000
  WSL1477                    437.929         0.000         0.000         0.000         0.000
  WSL1490                    917.989         0.000         0.000         0.000         0.000
  WSL1491                    919.404         0.000         0.000         0.000         0.000
  WSL1492                    928.774         0.000         0.000         0.000         0.000
  WSL1507                      2.810         0.000         0.000         0.000         0.000
  WSL1508                    262.247         0.000         0.000         0.000         0.000
  WSL1512                    261.412         0.000         0.000         0.000         0.000
  WSL1513                    263.325         0.000         0.000         0.000         0.000
  WSL1515                   1978.252         0.000         0.000         0.000         0.000
  WSL1516                    437.899         0.000         0.000         0.000         0.000
  WSL1518                    437.698         0.000         0.000         0.000         0.000
  WSL1519                    437.352         0.000         0.000         0.000         0.000
  WSL1521                    437.907         0.000         0.000         0.000         0.000
  WSL1543                    436.537         0.000         0.000         0.000         0.000
  WSL1961                    903.100         0.000         0.000         0.000         0.000
  WSL1964                    913.569         0.000         0.000         0.000         0.000
  WSL2010                   1036.680         0.000         0.000         0.000         0.000
  WSL2011                   1040.486         0.000         0.000         0.000         0.000
  WSL2012                   1045.105         0.000         0.000         0.000         0.000
  WSL2013                   1160.214         0.000         0.000         0.000         0.000
  WSL2014                   1557.566         0.000         0.000         0.000         0.000
  WSL2015                   1556.988         0.000         0.000         0.000         0.000
  WSL2016                   1764.238         0.000         0.000         0.000         0.000
  WSL2017                   1765.414         0.000         0.000         0.000         0.000
  WSL2018                   1972.041         0.000         0.000         0.000         0.000
  WSL2019                   1973.079         0.000         0.000         0.000         0.000
  WSL2028                   1032.706         0.000         0.000         0.000         0.000
  WSL2029                   1769.768         0.000         0.000         0.000         0.000
  WSL2038                    207.185         0.000         0.000         0.000         0.000
  WSL2039                    212.628         0.000         0.000         0.000         0.000
  WSL2041                    210.546         0.000         0.000         0.000         0.000
  WSL2294                   1017.100         0.000         0.000         0.000         0.000
  WSL2295                   1017.494         0.000         0.000         0.000         0.000
  WSL2296                   1025.635         0.000         0.000         0.000         0.000
  WSL2297                   1029.704         0.000         0.000         0.000         0.000
  WSL2298                   1020.886         0.000         0.000         0.000         0.000
  WSL2301                   1029.332         0.000         0.000         0.000         0.000
  WSL2302                   1033.761         0.000         0.000         0.000         0.000
  WSL2441                   1016.473         0.000         0.000         0.000         0.000
  WSL2442                    441.766         0.000         0.000         0.000         0.000
  WSL2443                    441.830         0.000         0.000         0.000         0.000
  WSL2444                    439.195         0.000         0.000         0.000         0.000
  WSL2446                    437.687         0.000         0.000         0.000         0.000
  WSL2447                    434.234         0.000         0.000         0.000         0.000
  WSL2448                    430.176         0.000         0.000         0.000         0.000
  WSL2449                    427.829         0.000         0.000         0.000         0.000
  WSL2450                    425.602         0.000         0.000         0.000         0.000
  WSL2451                    425.014         0.000         0.000         0.000         0.000
  WSL2452                    423.721         0.000         0.000         0.000         0.000
  WSL2454                    419.809         0.000         0.000         0.000         0.000
  WSL2478                    417.904         0.000         0.000         0.000         0.000
  WSL2479                    266.106         0.000         0.000         0.000         0.000
  WSL2480                    288.129         0.000         0.000         0.000         0.000
  WSL2482                    284.925         0.000         0.000         0.000         0.000
  WSL2484                    215.820         0.000         0.000         0.000         0.000
  WSL2493                    443.837         0.000         0.000         0.000         0.000
  WSL2867                   1976.551         0.000         0.000         0.000         0.000
  WSL2868                   1982.867         0.000         0.000         0.000         0.000
  WSL348                    1538.466         0.000         0.000         0.000         0.000
  WSL175                    1546.588         0.000         0.000         0.000         0.000
  WSL1467                   2911.930         0.000         0.000         0.000         0.000
  WSL1473                   2915.692         0.000         0.000         0.000         0.000
  XRpipe                    1560.373         0.000         0.000         0.000         0.000
  8                           25.315         0.000         0.000         0.000         0.000
  19                           0.000         0.000         0.000         0.000         0.000
  17                           0.000         0.000         0.000         0.000         0.000
  4                            0.000         0.000         0.000         0.000         0.000
  2                         3394.747         0.000         0.000         0.000         0.000
  XR-Pump-1                  239.738         0.000         0.000         0.000         0.000
  XR-Pump-3                  228.987         0.000         0.000         0.000         0.000
  XR-Pump-2                  239.032         0.000         0.000         0.000         0.000
  XR-Pump-4                  180.938         0.000         0.000         0.000         0.000
  CC-Pump-1                    0.000         0.000         0.000         0.000         0.000
  CC-Pump-2                    0.000         0.000         0.000         0.000         0.000
  JK-Pump-1                    0.000         0.000         0.000         0.000         0.000
  JK-Pump-2                    0.000         0.000         0.000         0.000         0.000
  

  Analysis begun on:  Mon Mar 18 14:38:03 2019
  Analysis ended on:  Mon Mar 18 14:38:04 2019
  Total elapsed time: 00:00:01