
  EPA STORM WATER MANAGEMENT MODEL - VERSION 5.1 (Build 5.2.0.dev1)
  --------------------------------------------------------------

  
  *********************************************************
  NOTE: The summary statistics displayed in this report are
  based on results found at every computational time step,  
  not just on results from each reporting time step.
  *********************************************************
  
  ****************
  Analysis Options
  ****************
  Flow Units ............... MLD
  Process Models:
    Rainfall/Runoff ........ YES
    RDII ................... NO
    Snowmelt ............... NO
    Groundwater ............ NO
    Flow Routing ........... YES
    Ponding Allowed ........ NO
    Water Quality .......... YES
  Infiltration Method ...... GREEN_AMPT
  Flow Routing Method ...... DYNWAVE
  Starting Date ............ 08/28/2015 08:00:00
  Ending Date .............. 08/28/2015 12:00:00
  Antecedent Dry Days ...... 4.0
  Report Time Step ......... 00:01:00
  Wet Time Step ............ 00:01:00
  Dry Time Step ............ 00:01:00
  Routing Time Step ........ 5.00 sec
  Variable Time Step ....... YES
  Maximum Trials ........... 8
  Number of Threads ........ 1
  Head Tolerance ........... 0.001500 m
  
  
  **************************        Volume         Depth
  Runoff Quantity Continuity     hectare-m            mm
  **************************     ---------       -------
  Total Precipitation ......         4.780        16.946
  Evaporation Loss .........         0.000         0.000
  Infiltration Loss ........         2.114         7.495
  Surface Runoff ...........         1.189         4.216
  Final Storage ............         1.479         5.244
  Continuity Error (%) .....        -0.055
  
  
  **************************           COD         NH3-N            TN            TP            SS
  Runoff Quality Continuity             kg            kg            kg            kg            kg
  **************************    ----------    ----------    ----------    ----------    ----------
  Initial Buildup ..........     13074.240         0.000         0.000         0.000         0.000
  Surface Buildup ..........       110.528         0.000         0.000         0.000         0.000
  Wet Deposition ...........         0.000         0.000         0.000         0.000         0.000
  Sweeping Removal .........         0.000         0.000         0.000         0.000         0.000
  Infiltration Loss ........       158.583         0.000         0.000         0.000         0.000
  BMP Removal ..............         0.000         0.000         0.000         0.000         0.000
  Surface Runoff ...........      1892.025         0.000         0.000         0.000         0.000
  Remaining Buildup ........     11131.881         0.000         0.000         0.000         0.000
  Continuity Error (%) .....         0.017         0.000         0.000         0.000         0.000
  
  
  **************************        Volume        Volume
  Flow Routing Continuity        hectare-m      10^6 ltr
  **************************     ---------     ---------
  Dry Weather Inflow .......         0.000         0.000
  Wet Weather Inflow .......         1.186        11.858
  Groundwater Inflow .......         0.000         0.000
  RDII Inflow ..............         0.000         0.000
  External Inflow ..........         0.561         5.611
  External Outflow .........         0.878         8.782
  Flooding Loss ............         0.768         7.682
  Evaporation Loss .........         0.000         0.000
  Exfiltration Loss ........         0.000         0.000
  Initial Stored Volume ....         0.000         0.000
  Final Stored Volume ......         0.101         1.006
  Continuity Error (%) .....        -0.007
  
  
  **************************           COD         NH3-N            TN            TP            SS
  Quality Routing Continuity            kg            kg            kg            kg            kg
  **************************    ----------    ----------    ----------    ----------    ----------
  Dry Weather Inflow .......         0.000         0.000         0.000         0.000         0.000
  Wet Weather Inflow .......      1888.202         0.000         0.000         0.000         0.000
  Groundwater Inflow .......         0.000         0.000         0.000         0.000         0.000
  RDII Inflow ..............         0.000         0.000         0.000         0.000         0.000
  External Inflow ..........       937.027         0.000         0.000         0.000         0.000
  External Outflow .........      1502.056         0.000         0.000         0.000         0.000
  Flooding Loss ............      1187.195         0.000         0.000         0.000         0.000
  Exfiltration Loss ........         0.000         0.000         0.000         0.000         0.000
  Mass Reacted .............         0.000         0.000         0.000         0.000         0.000
  Initial Stored Mass ......         0.000         0.000         0.000         0.000         0.000
  Final Stored Mass ........       134.468         0.000         0.000         0.000         0.000
  Continuity Error (%) .....         0.053         0.000         0.000         0.000         0.000
  
  
  *************************
  Highest Continuity Errors
  *************************
  Node WS02003099 (1.19%)
  
  
  ***************************
  Time-Step Critical Elements
  ***************************
  Link WSL1477 (74.15%)
  Link WSL2448 (5.31%)
  
  
  ********************************
  Highest Flow Instability Indexes
  ********************************
  Link WSL348 (20)
  Link WSL1477 (20)
  Link XRpipe (20)
  Link WSL1516 (20)
  Link WSL1515 (19)
  
  
  *************************
  Routing Time Step Summary
  *************************
  Minimum Time Step           :     1.01 sec
  Average Time Step           :     3.16 sec
  Maximum Time Step           :     5.00 sec
  Percent in Steady State     :     0.00
  Average Iterations per Step :     3.45
  Percent Not Converging      :    13.55
  
  
  ***************************
  Subcatchment Runoff Summary
  ***************************
  
  --------------------------------------------------------------------------------------------------------
                            Total      Total      Total      Total      Total       Total     Peak  Runoff
                           Precip      Runon       Evap      Infil     Runoff      Runoff   Runoff   Coeff
  Subcatchment                 mm         mm         mm         mm         mm    10^6 ltr      MLD
  --------------------------------------------------------------------------------------------------------
  1                         16.95      18.64       0.00       9.15      16.17        0.20     3.57   0.454
  2                         16.95       0.00       0.00       7.42       5.50        0.19     3.88   0.325
  3                         16.95       0.00       0.00       7.46       5.22        0.27     5.53   0.308
  4                         16.95       0.00       0.00       7.40       5.67        0.15     3.17   0.335
  5                         16.95      13.58       0.00       8.93      13.01        0.22     4.17   0.426
  6                         16.95       0.00       0.00       7.46       5.24        0.26     5.39   0.309
  7                         16.95       0.00       0.00       7.29       4.54        7.26   130.96   0.268
  8                         16.95       0.00       0.00       7.44       5.35        0.23     4.72   0.315
  9                         16.95       5.27       0.00       8.15       7.62        0.29     5.64   0.343
  17                        16.95       0.00       0.00       7.43       5.44        0.20     4.17   0.321
  18                        16.95       0.00       0.00       7.45       5.33        0.23     4.82   0.315
  28                        16.95      17.19       0.00       9.25      13.55        0.36     6.46   0.397
  29                        16.95       7.28       0.00       8.20       8.82        0.21     3.94   0.364
  30                        16.95      20.83       0.00       9.41      18.95        0.18     3.36   0.502
  31                        16.95       0.00       0.00       7.43       5.47        0.19     4.06   0.323
  33                        16.95       0.00       0.00       7.25       6.58        0.06     1.22   0.388
  34                        16.95      11.79       0.00       8.81      11.67        0.24     4.57   0.406
  35                        16.95       0.00       0.00       7.41       5.58        0.17     3.54   0.329
  36                        16.95      10.88       0.00       8.84       9.39        0.55    10.38   0.337
  39                        16.95       0.00       0.00       7.42       5.50        0.19     3.92   0.324
  40                        16.95       2.93       0.00       7.85       6.59        0.26     5.17   0.332
  41                        16.95       0.00       0.00       7.36       5.91        0.11     2.42   0.349
  42                        16.95       0.00       0.00       7.38       5.79        0.13     2.78   0.342
  43                        16.95       0.00       0.00       7.09       7.41        0.03     0.58   0.437
  44                        16.95     156.24       0.00      14.29     132.13        0.49     9.40   0.763
  45                        16.95       0.00       0.00       7.27       6.43        0.07     1.41   0.380
  46                        16.95       9.16       0.00       8.49      10.14        0.22     4.11   0.388
  47                        16.95       0.00       0.00       7.28       6.37        0.07     1.50   0.376
  48                        16.95       4.46       0.00       7.91       8.24        0.13     2.59   0.385
  55                        16.95       6.68       0.00       8.04      10.33        0.09     1.69   0.437
  56                        16.95      10.08       0.00       8.58      10.58        0.23     4.26   0.392
  57                        16.95       0.00       0.00       7.46       5.24        0.26     5.44   0.309
  59                        16.95       0.00       0.00       7.24       6.61        0.06     1.19   0.390
  60                        16.95      14.51       0.00       8.66      16.22        0.08     1.64   0.516
  61                        16.95       0.00       0.00       7.54       4.46        0.80    16.25   0.263
  62                        16.95       0.00       0.00       7.55       4.43        0.84    17.01   0.261
  64                        16.95       0.00       0.00       7.30       6.30        0.08     1.61   0.372
  
  
  ****************************
  Subcatchment Washoff Summary
  ****************************
  
  ------------------------------------------------------------------------------------------
                                 COD         NH3-N            TN            TP            SS
  Subcatchment                    kg            kg            kg            kg            kg
  ------------------------------------------------------------------------------------------
  1                           30.570         0.000         0.000         0.000         0.000
  2                            0.000         0.000         0.000         0.000         0.000
  3                            0.000         0.000         0.000         0.000         0.000
  4                           25.559         0.000         0.000         0.000         0.000
  5                           68.863         0.000         0.000         0.000         0.000
  6                           41.436         0.000         0.000         0.000         0.000
  7                         1034.155         0.000         0.000         0.000         0.000
  8                           36.766         0.000         0.000         0.000         0.000
  9                           68.324         0.000         0.000         0.000         0.000
  17                          32.845         0.000         0.000         0.000         0.000
  18                          37.442         0.000         0.000         0.000         0.000
  28                         135.716         0.000         0.000         0.000         0.000
  29                          63.766         0.000         0.000         0.000         0.000
  30                          55.237         0.000         0.000         0.000         0.000
  31                          32.004         0.000         0.000         0.000         0.000
  33                          10.797         0.000         0.000         0.000         0.000
  34                          73.879         0.000         0.000         0.000         0.000
  35                          28.286         0.000         0.000         0.000         0.000
  36                         167.590         0.000         0.000         0.000         0.000
  39                          31.015         0.000         0.000         0.000         0.000
  40                          53.651         0.000         0.000         0.000         0.000
  41                          20.008         0.000         0.000         0.000         0.000
  42                          22.675         0.000         0.000         0.000         0.000
  43                           5.503         0.000         0.000         0.000         0.000
  44                         153.268         0.000         0.000         0.000         0.000
  45                          12.287         0.000         0.000         0.000         0.000
  46                          65.433         0.000         0.000         0.000         0.000
  47                          13.012         0.000         0.000         0.000         0.000
  48                          32.082         0.000         0.000         0.000         0.000
  55                          24.345         0.000         0.000         0.000         0.000
  56                          70.732         0.000         0.000         0.000         0.000
  57                          41.830         0.000         0.000         0.000         0.000
  59                          10.511         0.000         0.000         0.000         0.000
  60                          27.139         0.000         0.000         0.000         0.000
  61                         113.209         0.000         0.000         0.000         0.000
  62                         117.984         0.000         0.000         0.000         0.000
  64                          13.814         0.000         0.000         0.000         0.000
  ------------------------------------------------------------------------------------------
  System                    2771.732         0.000         0.000         0.000         0.000
  
  
  ******************
  Node Depth Summary
  ******************
  
  ---------------------------------------------------------------------------------
                                 Average  Maximum  Maximum  Time of Max    Reported
                                   Depth    Depth      HGL   Occurrence   Max Depth
  Node                 Type       Meters   Meters   Meters  days hr:min      Meters
  ---------------------------------------------------------------------------------
  WS01000070           JUNCTION     0.00     0.00     0.00     0  00:00        0.00
  WS01000323           JUNCTION     0.00     0.00     0.00     0  00:00        0.00
  WS01000533           JUNCTION     0.00     0.00     6.86     0  00:00        0.00
  WS01005172           JUNCTION     0.00     0.00     0.00     0  00:00        0.00
  WS01005181           JUNCTION     0.00     0.00     0.00     0  00:00        0.00
  WS01009841           JUNCTION     0.00     0.00     0.00     0  00:00        0.00
  WS02000078           JUNCTION     0.00     0.00     0.00     0  00:00        0.00
  WS02000112           JUNCTION     0.00     0.00     0.00     0  00:00        0.00
  WS02000136           JUNCTION     0.00     0.00     0.00     0  00:00        0.00
  WS02001211           JUNCTION     0.41     0.46     5.30     0  02:59        0.46
  WS02001212           JUNCTION     0.35     0.41     5.21     0  02:58        0.40
  WS02001213           JUNCTION     0.44     0.51     5.21     0  02:58        0.51
  WS02003059           JUNCTION     0.40     0.52     5.17     0  02:57        0.52
  WS02003060           JUNCTION     0.45     0.61     5.16     0  02:56        0.61
  WS02003066           JUNCTION     0.17     0.30     5.60     0  03:02        0.30
  WS02003067           JUNCTION     0.29     0.50     5.82     0  03:01        0.49
  WS02003071           JUNCTION     0.50     0.69     5.09     0  02:51        0.68
  WS02003072           JUNCTION     0.42     0.63     5.00     0  02:50        0.62
  WS02003073           JUNCTION     0.49     0.80     5.04     0  02:50        0.77
  WS02003076           JUNCTION     0.44     0.70     4.93     0  02:49        0.67
  WS02003077           JUNCTION     0.07     0.12     5.13     0  02:54        0.12
  WS02003078           JUNCTION     0.05     0.08     6.98     0  02:53        0.08
  WS02003079           JUNCTION     0.15     0.27     7.18     0  02:53        0.27
  WS02003093           JUNCTION     0.03     0.08     7.42     0  02:50        0.08
  WS02003094           JUNCTION     0.12     0.20     7.42     0  02:51        0.20
  WS02003098           JUNCTION     0.08     0.14     7.31     0  02:51        0.14
  WS02003099           JUNCTION     0.16     0.27     7.31     0  02:52        0.27
  WS02003102           JUNCTION     0.14     0.26     7.29     0  02:52        0.26
  WS02003103           JUNCTION     0.16     0.29     7.26     0  02:52        0.29
  WS02003104           JUNCTION     0.16     0.28     7.24     0  02:53        0.28
  WS02003106           JUNCTION     0.16     0.28     7.21     0  02:53        0.28
  WS02004050           JUNCTION     0.31     0.42     4.64     0  03:07        0.42
  WS02004053           JUNCTION     0.00     0.00     0.00     0  00:00        0.00
  WS02004136           JUNCTION     0.17     0.18     6.91     0  01:28        0.18
  WS02004139           JUNCTION     0.35     0.37     5.33     0  02:57        0.37
  WS02004401           JUNCTION     0.26     0.43     6.43     0  03:01        0.43
  WS02004402           JUNCTION     0.27     0.45     6.41     0  03:00        0.45
  WS02004403           JUNCTION     0.26     0.45     6.38     0  03:01        0.45
  WS02004404           JUNCTION     0.34     0.54     6.39     0  03:01        0.54
  WS02004405           JUNCTION     0.35     0.54     6.38     0  03:01        0.54
  WS02004406           JUNCTION     0.33     0.53     6.36     0  03:01        0.53
  WS02004407           JUNCTION     0.31     0.50     6.30     0  03:01        0.50
  WS02004409           JUNCTION     0.31     0.49     6.26     0  03:00        0.49
  WS02004410           JUNCTION     0.30     0.48     6.20     0  03:01        0.48
  WS02004411           JUNCTION     0.28     0.44     6.12     0  03:01        0.44
  WS02004412           JUNCTION     0.24     0.39     6.03     0  03:00        0.39
  WS02004413           JUNCTION     0.25     0.42     5.89     0  03:01        0.42
  WS02004997           JUNCTION     5.66     6.68     8.29     0  03:00        6.68
  WS02005192           JUNCTION     0.12     0.21     8.08     0  02:46        0.21
  WS02005193           JUNCTION     0.11     0.18     8.00     0  02:47        0.18
  WS02005196           JUNCTION     0.12     0.20     8.05     0  02:46        0.20
  WS02006109           JUNCTION     0.29     0.46     7.08     0  03:01        0.46
  WS02006110           JUNCTION     0.28     0.43     7.03     0  03:00        0.43
  WS02006111           JUNCTION     0.14     0.23     6.81     0  03:00        0.23
  WS02006112           JUNCTION     0.28     0.44     6.56     0  03:00        0.44
  WS02006113           JUNCTION     0.24     0.37     6.96     0  03:00        0.37
  WS02006115           JUNCTION     0.24     0.40     6.50     0  03:00        0.40
  WS02006116           JUNCTION     0.27     0.43     6.47     0  03:01        0.43
  WS02006183           JUNCTION     0.00     0.00     0.00     0  00:00        0.00
  WS02006228           JUNCTION     0.29     0.46     7.11     0  03:01        0.46
  WS02006229           JUNCTION     0.25     0.42     7.11     0  03:01        0.42
  WS02006230           JUNCTION     0.23     0.38     7.13     0  03:00        0.38
  WS02006231           JUNCTION     0.16     0.25     7.15     0  02:54        0.25
  WS02006232           JUNCTION     0.15     0.24     7.27     0  02:53        0.24
  WS02006234           JUNCTION     0.14     0.22     7.38     0  02:55        0.22
  WS02006235           JUNCTION     0.18     0.27     7.44     0  02:54        0.27
  WS02006238           JUNCTION     0.18     0.27     7.45     0  02:54        0.27
  WS02006239           JUNCTION     0.19     0.29     7.50     0  02:54        0.29
  WS02006242           JUNCTION     0.20     0.30     7.60     0  02:53        0.30
  WS02006240           JUNCTION     0.15     0.25     7.54     0  02:54        0.25
  WS02006243           JUNCTION     0.14     0.23     7.65     0  02:52        0.23
  WS02006245           JUNCTION     0.15     0.24     7.73     0  02:52        0.24
  WS02006247           JUNCTION     0.17     0.27     7.78     0  02:52        0.27
  WS02006248           JUNCTION     0.12     0.20     7.79     0  02:50        0.20
  WS02006249           JUNCTION     0.14     0.23     7.83     0  02:49        0.23
  WS02006251           JUNCTION     0.13     0.21     7.88     0  02:48        0.21
  WS02006253           JUNCTION     0.08     0.14     7.94     0  02:47        0.14
  WS02618401           JUNCTION     0.00     0.00     0.00     0  00:00        0.00
  WS8802               JUNCTION     0.00     0.00     4.38     0  00:00        0.00
  WSA1649              JUNCTION     0.00     0.00     0.00     0  00:00        0.00
  WSF200               JUNCTION     0.16     0.29     5.39     0  03:00        0.29
  XR-Inflow            JUNCTION     5.50     6.55     8.36     0  02:19        6.55
  WS02004114           JUNCTION     5.63     6.65     8.25     0  03:00        6.65
  outfall-2            OUTFALL      0.00     0.00     7.00     0  00:00        0.00
  outfall-5            OUTFALL      0.00     0.00     7.67     0  00:00        0.00
  outfall-14           OUTFALL      0.00     0.00     7.66     0  00:00        0.00
  outfall-16           OUTFALL      0.00     0.00     8.39     0  00:00        0.00
  12                   OUTFALL      0.31     0.42     0.42     0  02:56        0.42
  XR-storage           STORAGE      6.71     7.72     8.22     0  01:53        7.72
  CC-storage           STORAGE      4.77     5.63     8.81     0  01:40        5.63
  JK-storage           STORAGE      3.90     4.80     7.80     0  01:49        4.80
  
  
  *******************
  Node Inflow Summary
  *******************
  
  -------------------------------------------------------------------------------------------------
                                  Maximum  Maximum                  Lateral       Total        Flow
                                  Lateral    Total  Time of Max      Inflow      Inflow     Balance
                                   Inflow   Inflow   Occurrence      Volume      Volume       Error
  Node                 Type           MLD      MLD  days hr:min    10^6 ltr    10^6 ltr     Percent
  -------------------------------------------------------------------------------------------------
  WS01000070           JUNCTION      0.00     0.00     0  00:00           0           0       0.000 ltr
  WS01000323           JUNCTION      0.00     0.00     0  00:00           0           0       0.000 ltr
  WS01000533           JUNCTION      0.00     0.00     0  00:00           0           0       0.000 ltr
  WS01005172           JUNCTION      0.00     0.00     0  00:00           0           0       0.000 ltr
  WS01005181           JUNCTION      0.00     0.00     0  00:00           0           0       0.000 ltr
  WS01009841           JUNCTION      0.00     0.00     0  00:00           0           0       0.000 ltr
  WS02000078           JUNCTION      0.00     0.00     0  00:00           0           0       0.000 ltr
  WS02000112           JUNCTION      0.00     0.00     0  00:00           0           0       0.000 ltr
  WS02000136           JUNCTION      0.00     0.00     0  00:00           0           0       0.000 ltr
  WS02001211           JUNCTION      0.25    34.62     0  01:35      0.0407        4.83       0.532
  WS02001212           JUNCTION      0.21    34.57     0  01:39      0.0346        4.83       0.297
  WS02001213           JUNCTION      0.30    34.44     0  03:14      0.0489        4.87       0.404
  WS02003059           JUNCTION      0.23    34.99     0  03:13      0.0378        4.89       0.484
  WS02003060           JUNCTION      0.16    93.20     0  03:00      0.0252        8.07       0.437
  WS02003066           JUNCTION      0.08    66.26     0  03:00      0.0122        3.17       0.188
  WS02003067           JUNCTION      0.26    52.30     0  03:00      0.0395        3.17       0.262
  WS02003071           JUNCTION      0.35    87.38     0  03:02      0.0538        8.09       0.455
  WS02003072           JUNCTION      0.24    87.36     0  02:57      0.0382         8.1       0.284
  WS02003073           JUNCTION      0.07   103.81     0  02:51     0.00978        8.64       0.265
  WS02003076           JUNCTION      0.72   126.11     0  03:08        0.12        8.73       0.175
  WS02003077           JUNCTION      0.04    10.55     0  02:53      0.0059       0.554       0.128
  WS02003078           JUNCTION      0.03    10.52     0  02:53     0.00419       0.548       0.009
  WS02003079           JUNCTION      0.04    10.49     0  02:53     0.00561       0.545       0.247
  WS02003093           JUNCTION      0.02     0.07     0  02:38     0.00306     0.00343       0.658
  WS02003094           JUNCTION      5.70     5.71     0  02:50       0.297       0.301       0.952
  WS02003098           JUNCTION      0.02     5.73     0  02:51     0.00293         0.3       0.586
  WS02003099           JUNCTION      0.07     5.79     0  02:51      0.0109        0.31       1.208
  WS02003102           JUNCTION      4.75    10.43     0  02:50       0.231       0.536       0.576
  WS02003103           JUNCTION      0.02    10.42     0  02:51     0.00239       0.536       0.424
  WS02003104           JUNCTION      0.02    10.43     0  02:52     0.00302       0.536       0.359
  WS02003106           JUNCTION      0.05    10.47     0  02:52     0.00728       0.542       0.443
  WS02004050           JUNCTION      0.72   124.65     0  03:06       0.119        8.84       0.616
  WS02004053           JUNCTION      0.00     0.00     0  00:00           0           0       0.000 ltr
  WS02004136           JUNCTION      0.44    32.92     0  01:23      0.0703        4.74       0.067
  WS02004139           JUNCTION      0.38    33.58     0  01:26      0.0619         4.8       0.373
  WS02004401           JUNCTION      0.05    31.49     0  03:01     0.00897        1.95       0.332
  WS02004402           JUNCTION      0.22    31.68     0  03:01      0.0335        1.98       0.302
  WS02004403           JUNCTION      0.23    31.91     0  03:03      0.0349        2.01       0.256
  WS02004404           JUNCTION      0.24    32.18     0  03:03      0.0365        2.04       0.253
  WS02004405           JUNCTION      3.24    34.91     0  03:00       0.162         2.2       0.356
  WS02004406           JUNCTION      6.58    41.47     0  03:00       0.377        2.57       0.469
  WS02004407           JUNCTION      0.11    41.56     0  03:01      0.0171        2.57       0.417
  WS02004409           JUNCTION      4.37    45.88     0  03:00       0.255        2.82       0.340
  WS02004410           JUNCTION      0.15    46.05     0  03:01      0.0226        2.83       0.344
  WS02004411           JUNCTION      0.25    46.33     0  03:01      0.0379        2.86       0.297
  WS02004412           JUNCTION      5.47    51.26     0  03:01       0.273        3.12       0.220
  WS02004413           JUNCTION      0.11    51.43     0  03:00      0.0172        3.13       0.210
  WS02004997           JUNCTION      0.42    63.57     0  03:00      0.0693        7.26       0.542
  WS02005192           JUNCTION      5.54     5.54     0  02:47       0.279       0.279       0.144
  WS02005193           JUNCTION      0.09     5.74     0  02:47      0.0146       0.311       0.281
  WS02005196           JUNCTION      0.12     5.65     0  02:46       0.019       0.298       0.301
  WS02006109           JUNCTION      0.08    25.61     0  03:01      0.0135        1.57       0.530
  WS02006110           JUNCTION      0.08    25.69     0  03:01      0.0132        1.58       0.498
  WS02006111           JUNCTION      0.24    31.04     0  03:00      0.0366        1.89       0.142
  WS02006112           JUNCTION      0.18    31.20     0  03:00      0.0273        1.92       0.381
  WS02006113           JUNCTION      5.69    30.83     0  02:59       0.292        1.86       0.318
  WS02006115           JUNCTION      0.08    31.27     0  03:00      0.0134        1.92       0.361
  WS02006116           JUNCTION      0.24    31.45     0  03:00       0.036        1.95       0.349
  WS02006183           JUNCTION      0.00     0.00     0  00:00           0           0       0.000 ltr
  WS02006228           JUNCTION      9.56    25.54     0  03:01       0.516        1.56       0.383
  WS02006229           JUNCTION      0.13    16.23     0  02:54        0.02        1.05       0.449
  WS02006230           JUNCTION      0.07    16.17     0  02:53      0.0116        1.04       0.397
  WS02006231           JUNCTION      0.13    16.11     0  02:53      0.0205        1.03       0.212
  WS02006232           JUNCTION      3.96    15.99     0  02:53       0.199        1.01       0.224
  WS02006234           JUNCTION      0.14    12.21     0  02:55      0.0216       0.812       0.249
  WS02006235           JUNCTION      0.14    12.09     0  02:55      0.0223       0.792       0.196
  WS02006238           JUNCTION      0.15    11.96     0  02:54      0.0235       0.772       0.254
  WS02006239           JUNCTION      0.11    11.82     0  02:54      0.0174       0.752       0.426
  WS02006242           JUNCTION      0.08    11.66     0  02:53      0.0129       0.731       0.546
  WS02006240           JUNCTION      0.06    11.72     0  02:53     0.00992       0.737       0.347
  WS02006243           JUNCTION      0.17    11.59     0  02:52      0.0269        0.72       0.334
  WS02006245           JUNCTION      0.07    11.43     0  02:52      0.0113       0.696       0.297
  WS02006247           JUNCTION      3.71    11.37     0  02:52        0.22       0.686       0.297
  WS02006248           JUNCTION      0.12     7.85     0  02:49      0.0192       0.467       0.205
  WS02006249           JUNCTION      0.19     7.74     0  02:48      0.0286        0.45       0.373
  WS02006251           JUNCTION      1.74     7.58     0  02:48      0.0954       0.423       0.351
  WS02006253           JUNCTION      0.11     5.84     0  02:47      0.0173       0.328       0.161
  WS02618401           JUNCTION      0.00     0.00     0  00:00           0           0       0.000 ltr
  WS8802               JUNCTION      0.00     0.00     0  00:00           0           0       0.000 ltr
  WSA1649              JUNCTION      0.00     0.00     0  00:00           0           0       0.000 ltr
  WSF200               JUNCTION      0.14    60.92     0  03:02      0.0216        3.19      -0.008
  XR-Inflow            JUNCTION    149.20   149.20     0  03:00        10.6        10.6       0.230
  WS02004114           JUNCTION      0.57    64.10     0  02:51      0.0916        7.32       0.335
  outfall-2            OUTFALL       0.00     0.00     0  00:00           0           0       0.000 ltr
  outfall-5            OUTFALL       0.00     0.00     0  00:00           0           0       0.000 ltr
  outfall-14           OUTFALL       0.00     0.00     0  00:00           0           0       0.000 ltr
  outfall-16           OUTFALL       0.00     0.00     0  00:00           0           0       0.000 ltr
  12                   OUTFALL       0.00   101.52     0  02:56           0        8.78       0.000
  XR-storage           STORAGE       0.00    64.10     0  02:56           0        7.29       0.645
  CC-storage           STORAGE      17.87    17.87     0  02:50        1.09        1.09      -0.005
  JK-storage           STORAGE      18.00    18.00     0  02:50        1.02        1.02       0.006
  
  
  **********************
  Node Surcharge Summary
  **********************
  
  Surcharging occurs when water rises above the top of the highest conduit.
  ---------------------------------------------------------------------
                                               Max. Height   Min. Depth
                                   Hours       Above Crown    Below Rim
  Node                 Type      Surcharged         Meters       Meters
  ---------------------------------------------------------------------
  WS01000070           JUNCTION        4.00          0.000        0.000
  WS01000323           JUNCTION        4.00          0.000        0.000
  WS01000533           JUNCTION        4.00          0.000        2.147
  WS01005172           JUNCTION        4.00          0.000        0.000
  WS01005181           JUNCTION        4.00          0.000        0.000
  WS01009841           JUNCTION        4.00          0.000        0.000
  WS02000078           JUNCTION        4.00          0.000        0.000
  WS02000112           JUNCTION        4.00          0.000        0.000
  WS02000136           JUNCTION        4.00          0.000        0.000
  WS02004053           JUNCTION        4.00          0.000        0.000
  WS02004997           JUNCTION        3.88          5.784        0.216
  WS02006183           JUNCTION        4.00          0.000        0.000
  WS02618401           JUNCTION        4.00          0.000        0.000
  WS8802               JUNCTION        4.00          0.000        4.942
  WSA1649              JUNCTION        4.00          0.000        0.000
  XR-Inflow            JUNCTION        3.87          5.650        0.000
  WS02004114           JUNCTION        3.88          5.748        0.767
  
  
  *********************
  Node Flooding Summary
  *********************
  
  Flooding refers to all water that overflows a node, whether it ponds or not.
  --------------------------------------------------------------------------
                                                             Total   Maximum
                                 Maximum   Time of Max       Flood    Ponded
                        Hours       Rate    Occurrence      Volume     Depth
  Node                 Flooded       MLD   days hr:min    10^6 ltr    Meters
  --------------------------------------------------------------------------
  XR-Inflow               1.68     86.02      0  03:00       3.363     0.000
  XR-storage              2.10     31.62      0  02:53       2.508     0.000
  CC-storage              2.33     17.87      0  02:50       0.930     0.000
  JK-storage              2.17     18.00      0  02:50       0.882     0.000
  
  
  **********************
  Storage Volume Summary
  **********************
  
  --------------------------------------------------------------------------------------------------
                         Average     Avg  Evap Exfil       Maximum     Max    Time of Max    Maximum
                          Volume    Pcnt  Pcnt  Pcnt        Volume    Pcnt     Occurrence    Outflow
  Storage Unit           1000 m3    Full  Loss  Loss       1000 m3    Full    days hr:min        MLD
  --------------------------------------------------------------------------------------------------
  XR-storage               0.054      87     0     0         0.063     100       0  01:53      32.48
  CC-storage               0.135      85     0     0         0.159     100       0  01:40       0.00
  JK-storage               0.110      81     0     0         0.136     100       0  01:49       0.00
  
  
  ***********************
  Outfall Loading Summary
  ***********************
  
  ---------------------------------------------------------------------------------------------------------------------------------
                         Flow       Avg       Max       Total         Total         Total         Total         Total         Total
                         Freq      Flow      Flow      Volume           COD         NH3-N            TN            TP            SS
  Outfall Node           Pcnt       MLD       MLD    10^6 ltr            kg            kg            kg            kg            kg
  ---------------------------------------------------------------------------------------------------------------------------------
  outfall-2              0.00      0.00      0.00       0.000         0.000         0.000         0.000         0.000         0.000
  outfall-5              0.00      0.00      0.00       0.000         0.000         0.000         0.000         0.000         0.000
  outfall-14             0.00      0.00      0.00       0.000         0.000         0.000         0.000         0.000         0.000
  outfall-16             0.00      0.00      0.00       0.000         0.000         0.000         0.000         0.000         0.000
  12                    99.98     60.25    101.52       8.782      1502.255         0.000         0.000         0.000         0.000
  ---------------------------------------------------------------------------------------------------------------------------------
  System                20.00     60.25    101.52       8.782      1502.255         0.000         0.000         0.000         0.000
  
  
  ********************
  Link Flow Summary
  ********************
  
  -----------------------------------------------------------------------------
                                 Maximum  Time of Max   Maximum    Max/    Max/
                                  |Flow|   Occurrence   |Veloc|    Full    Full
  Link                 Type          MLD  days hr:min     m/sec    Flow   Depth
  -----------------------------------------------------------------------------
  WSL49                CONDUIT    125.40     0  03:08      2.34    1.56    0.60
  WSL1465              CONDUIT     35.61     0  03:15      1.62    0.32    0.56
  WSL1472              CONDUIT     87.13     0  02:57      1.75    0.99    0.54
  WSL1475              CONDUIT    123.93     0  03:06      2.79    1.32    0.38
  WSL1476              CONDUIT     10.55     0  02:54      0.54    0.05    0.58
  WSL1477              CONDUIT     10.49     0  02:53      1.78    0.41    0.29
  WSL1490              CONDUIT     34.36     0  01:39      1.37    0.56    0.43
  WSL1491              CONDUIT     34.16     0  03:14      1.39    0.20    0.46
  WSL1492              CONDUIT     34.77     0  03:13      1.35    0.54    0.52
  WSL1507              CONDUIT      0.10     0  03:03      0.11    0.00    0.18
  WSL1508              CONDUIT      5.71     0  02:51      0.85    0.16    0.21
  WSL1512              CONDUIT      5.72     0  02:51      0.58    0.04    0.20
  WSL1513              CONDUIT      5.79     0  02:53      0.47    0.34    0.33
  WSL1515              CONDUIT     66.19     0  03:00      2.44    0.65    0.32
  WSL1516              CONDUIT     10.52     0  02:53      3.88    0.04    0.17
  WSL1518              CONDUIT     10.41     0  02:51      0.80    0.20    0.34
  WSL1519              CONDUIT     10.43     0  02:52      0.77    0.26    0.35
  WSL1521              CONDUIT     10.46     0  02:53      0.79    0.30    0.34
  WSL1543              CONDUIT     10.41     0  02:52      0.76    0.32    0.35
  WSL1961              CONDUIT     33.20     0  01:26      2.61    0.07    0.28
  WSL1964              CONDUIT     34.37     0  01:35      1.28    0.19    0.35
  WSL2010              CONDUIT     31.72     0  03:03      1.07    0.41    0.45
  WSL2011              CONDUIT     31.99     0  03:03      0.96    0.21    0.50
  WSL2012              CONDUIT     32.24     0  03:03      0.86    0.49    0.54
  WSL2013              CONDUIT     34.90     0  03:00      0.95    0.87    0.54
  WSL2014              CONDUIT     41.47     0  03:01      1.18    0.66    0.51
  WSL2015              CONDUIT     41.59     0  03:01      1.24    0.56    0.50
  WSL2016              CONDUIT     45.93     0  03:01      1.41    0.53    0.48
  WSL2017              CONDUIT     46.13     0  03:01      1.53    0.56    0.46
  WSL2018              CONDUIT     51.34     0  03:00      2.02    0.31    0.40
  WSL2019              CONDUIT     52.09     0  03:00      1.84    0.31    0.46
  WSL2028              CONDUIT     31.50     0  03:01      1.09    0.34    0.44
  WSL2029              CONDUIT     46.52     0  03:02      1.75    0.59    0.42
  WSL2038              CONDUIT      5.54     0  02:46      0.76    0.28    0.34
  WSL2039              CONDUIT      5.74     0  02:47      1.14    0.30    0.26
  WSL2041              CONDUIT      5.65     0  02:47      0.87    0.28    0.31
  WSL2294              CONDUIT     25.61     0  03:01      1.05    0.86    0.55
  WSL2295              CONDUIT     25.75     0  03:02      1.21    1.16    0.49
  WSL2296              CONDUIT     31.04     0  03:00      1.78    0.17    0.42
  WSL2297              CONDUIT     31.19     0  03:00      1.14    0.60    0.42
  WSL2298              CONDUIT     30.83     0  03:00      2.08    1.42    0.37
  WSL2301              CONDUIT     31.26     0  03:00      1.16    0.29    0.42
  WSL2302              CONDUIT     31.44     0  03:01      1.11    0.39    0.43
  WSL2441              CONDUIT     25.53     0  03:01      0.99    0.65    0.57
  WSL2442              CONDUIT     16.12     0  02:54      0.84    0.41    0.57
  WSL2443              CONDUIT     16.10     0  02:53      1.13    0.25    0.45
  WSL2444              CONDUIT     15.99     0  02:53      1.51    0.25    0.36
  WSL2446              CONDUIT     12.21     0  02:55      1.28    0.21    0.33
  WSL2447              CONDUIT     12.09     0  02:55      1.16    0.62    0.35
  WSL2448              CONDUIT     11.96     0  02:55      1.01    0.34    0.38
  WSL2449              CONDUIT     11.82     0  02:54      0.95    0.41    0.40
  WSL2450              CONDUIT     11.72     0  02:54      0.99    0.24    0.38
  WSL2451              CONDUIT     11.66     0  02:53      0.95    0.76    0.40
  WSL2452              CONDUIT     11.59     0  02:53      0.99    0.22    0.38
  WSL2454              CONDUIT     11.43     0  02:52      1.16    0.27    0.34
  WSL2478              CONDUIT     11.37     0  02:52      1.04    0.40    0.36
  WSL2479              CONDUIT      7.84     0  02:49      0.81    0.15    0.33
  WSL2480              CONDUIT      7.74     0  02:49      0.90    0.36    0.30
  WSL2482              CONDUIT      7.58     0  02:48      0.85    0.20    0.31
  WSL2484              CONDUIT      5.84     0  02:47      0.90    0.08    0.25
  WSL2493              CONDUIT     16.19     0  02:55      0.67    0.27    0.55
  WSL2867              CONDUIT     60.80     0  03:02      3.46    0.12    0.24
  WSL2868              CONDUIT     57.95     0  03:01      1.78    0.11    0.37
  WSL348               CONDUIT     63.16     0  03:00      1.88    0.58    1.00
  WSL175               CONDUIT     63.56     0  03:00      2.29    2.14    1.00
  WSL1467              CONDUIT     87.08     0  03:02      1.68    0.46    0.53
  WSL1473              CONDUIT     93.28     0  02:51      1.83    0.38    0.57
  XRpipe               CONDUIT     64.10     0  02:56      2.54    0.16    1.00
  8                    CONDUIT      0.00     0  00:00      0.00    0.00    0.00
  19                   CONDUIT      0.00     0  00:00      0.00    0.00    0.00
  17                   CONDUIT      0.00     0  00:00      0.00    0.00    0.00
  4                    CONDUIT      0.00     0  00:00      0.00    0.00    0.00
  2                    CONDUIT    101.52     0  02:56      3.76    0.37    0.42
  XR-Pump-1            PUMP         8.12     0  00:09              1.00
  XR-Pump-3            PUMP         8.12     0  00:11              1.00
  XR-Pump-2            PUMP         8.12     0  00:10              1.00
  XR-Pump-4            PUMP         8.12     0  01:23              1.00
  CC-Pump-1            PUMP         0.00     0  00:00              0.00
  CC-Pump-2            PUMP         0.00     0  00:00              0.00
  JK-Pump-1            PUMP         0.00     0  00:00              0.00
  JK-Pump-2            PUMP         0.00     0  00:00              0.00
  
  
  ***************************
  Flow Classification Summary
  ***************************
  
  -------------------------------------------------------------------------------------
                      Adjusted    ---------- Fraction of Time in Flow Class ---------- 
                       /Actual         Up    Down  Sub   Sup   Up    Down  Norm  Inlet 
  Conduit               Length    Dry  Dry   Dry   Crit  Crit  Crit  Crit  Ltd   Ctrl  
  -------------------------------------------------------------------------------------
  WSL49                   1.00   0.00  0.00  0.00  1.00  0.00  0.00  0.00  0.00  0.00
  WSL1465                 1.00   0.00  0.00  0.00  1.00  0.00  0.00  0.00  0.10  0.00
  WSL1472                 1.00   0.00  0.00  0.00  1.00  0.00  0.00  0.00  0.00  0.00
  WSL1475                 1.00   0.00  0.00  0.00  0.13  0.87  0.00  0.00  0.01  0.00
  WSL1476                 1.00   0.00  0.00  0.00  1.00  0.00  0.00  0.00  1.00  0.00
  WSL1477                 1.00   0.00  0.00  0.00  0.01  0.99  0.00  0.00  0.57  0.00
  WSL1490                 1.00   0.00  0.00  0.00  1.00  0.00  0.00  0.00  0.00  0.00
  WSL1491                 1.00   0.00  0.00  0.00  1.00  0.00  0.00  0.00  0.05  0.00
  WSL1492                 1.00   0.00  0.00  0.00  1.00  0.00  0.00  0.00  0.01  0.00
  WSL1507                 1.00   0.00  0.00  0.00  1.00  0.00  0.00  0.00  0.62  0.00
  WSL1508                 1.00   0.00  0.00  0.00  1.00  0.00  0.00  0.00  0.00  0.00
  WSL1512                 1.00   0.00  0.00  0.00  1.00  0.00  0.00  0.00  1.00  0.00
  WSL1513                 1.00   0.00  0.00  0.00  1.00  0.00  0.00  0.00  0.00  0.00
  WSL1515                 1.00   0.00  0.00  0.00  0.12  0.88  0.00  0.00  0.04  0.00
  WSL1516                 1.00   0.00  0.00  0.00  0.00  1.00  0.00  0.00  1.00  0.00
  WSL1518                 1.00   0.00  0.00  0.00  1.00  0.00  0.00  0.00  0.54  0.00
  WSL1519                 1.00   0.00  0.00  0.00  1.00  0.00  0.00  0.00  0.34  0.00
  WSL1521                 1.00   0.00  0.00  0.00  1.00  0.00  0.00  0.00  0.02  0.00
  WSL1543                 1.00   0.00  0.00  0.00  1.00  0.00  0.00  0.00  0.02  0.00
  WSL1961                 1.00   0.00  0.00  0.00  0.02  0.98  0.00  0.00  0.98  0.00
  WSL1964                 1.00   0.00  0.00  0.00  1.00  0.00  0.00  0.00  0.06  0.00
  WSL2010                 1.00   0.00  0.00  0.00  1.00  0.00  0.00  0.00  0.01  0.00
  WSL2011                 1.00   0.00  0.00  0.00  1.00  0.00  0.00  0.00  0.27  0.00
  WSL2012                 1.00   0.00  0.00  0.00  1.00  0.00  0.00  0.00  0.00  0.00
  WSL2013                 1.00   0.00  0.00  0.00  1.00  0.00  0.00  0.00  0.00  0.00
  WSL2014                 1.00   0.00  0.00  0.00  1.00  0.00  0.00  0.00  0.00  0.00
  WSL2015                 1.00   0.00  0.00  0.00  1.00  0.00  0.00  0.00  0.02  0.00
  WSL2016                 1.00   0.00  0.00  0.00  1.00  0.00  0.00  0.00  0.01  0.00
  WSL2017                 1.00   0.00  0.00  0.00  1.00  0.00  0.00  0.00  0.04  0.00
  WSL2018                 1.00   0.00  0.00  0.00  0.01  0.99  0.00  0.00  0.07  0.00
  WSL2019                 1.00   0.00  0.00  0.00  0.45  0.55  0.00  0.00  0.11  0.00
  WSL2028                 1.00   0.00  0.00  0.00  1.00  0.00  0.00  0.00  0.06  0.00
  WSL2029                 1.00   0.00  0.00  0.00  0.72  0.28  0.00  0.00  0.00  0.00
  WSL2038                 1.00   0.00  0.00  0.00  1.00  0.00  0.00  0.00  0.02  0.00
  WSL2039                 1.00   0.00  0.00  0.00  0.62  0.38  0.00  0.00  0.00  0.00
  WSL2041                 1.00   0.00  0.00  0.00  1.00  0.00  0.00  0.00  0.31  0.00
  WSL2294                 1.00   0.00  0.00  0.00  1.00  0.00  0.00  0.00  0.00  0.00
  WSL2295                 1.00   0.00  0.00  0.00  1.00  0.00  0.00  0.00  0.00  0.00
  WSL2296                 1.00   0.00  0.00  0.00  0.24  0.76  0.00  0.00  0.86  0.00
  WSL2297                 1.00   0.00  0.00  0.00  1.00  0.00  0.00  0.00  0.00  0.00
  WSL2298                 1.00   0.00  0.00  0.00  0.06  0.94  0.00  0.00  0.00  0.00
  WSL2301                 1.00   0.00  0.00  0.00  1.00  0.00  0.00  0.00  0.09  0.00
  WSL2302                 1.00   0.00  0.00  0.00  1.00  0.00  0.00  0.00  0.01  0.00
  WSL2441                 1.00   0.00  0.00  0.00  1.00  0.00  0.00  0.00  0.00  0.00
  WSL2442                 1.00   0.00  0.00  0.00  1.00  0.00  0.00  0.00  0.22  0.00
  WSL2443                 1.00   0.00  0.00  0.00  1.00  0.00  0.00  0.00  0.69  0.00
  WSL2444                 1.00   0.00  0.00  0.00  0.02  0.98  0.00  0.00  0.38  0.00
  WSL2446                 1.00   0.00  0.00  0.00  0.46  0.54  0.00  0.00  0.00  0.00
  WSL2447                 1.00   0.00  0.00  0.00  1.00  0.00  0.00  0.00  0.00  0.00
  WSL2448                 1.00   0.00  0.00  0.00  1.00  0.00  0.00  0.00  0.01  0.00
  WSL2449                 1.00   0.00  0.00  0.00  1.00  0.00  0.00  0.00  0.03  0.00
  WSL2450                 1.00   0.00  0.00  0.00  1.00  0.00  0.00  0.00  0.52  0.00
  WSL2451                 1.00   0.00  0.00  0.00  1.00  0.00  0.00  0.00  0.00  0.00
  WSL2452                 1.00   0.00  0.00  0.00  1.00  0.00  0.00  0.00  0.82  0.00
  WSL2454                 1.00   0.00  0.00  0.00  1.00  0.00  0.00  0.00  0.01  0.00
  WSL2478                 1.00   0.00  0.00  0.00  1.00  0.00  0.00  0.00  0.00  0.00
  WSL2479                 1.00   0.00  0.00  0.00  1.00  0.00  0.00  0.00  0.71  0.00
  WSL2480                 1.00   0.00  0.00  0.00  1.00  0.00  0.00  0.00  0.00  0.00
  WSL2482                 1.00   0.00  0.00  0.00  1.00  0.00  0.00  0.00  0.76  0.00
  WSL2484                 1.00   0.00  0.00  0.00  0.99  0.01  0.00  0.00  0.99  0.00
  WSL2493                 1.00   0.00  0.00  0.00  1.00  0.00  0.00  0.00  0.05  0.00
  WSL2867                 1.00   0.00  0.00  0.00  0.00  1.00  0.00  0.00  0.17  0.00
  WSL2868                 1.00   0.00  0.00  0.00  0.98  0.02  0.00  0.00  0.96  0.00
  WSL348                  1.00   0.00  0.00  0.00  1.00  0.00  0.00  0.00  0.01  0.00
  WSL175                  1.00   0.00  0.00  0.00  0.99  0.01  0.00  0.00  0.00  0.00
  WSL1467                 1.00   0.00  0.00  0.00  1.00  0.00  0.00  0.00  0.06  0.00
  WSL1473                 1.00   0.00  0.00  0.00  1.00  0.00  0.00  0.00  0.06  0.00
  XRpipe                  1.00   0.00  0.00  0.00  1.00  0.00  0.00  0.00  0.01  0.00
  8                       1.00   1.00  0.00  0.00  0.00  0.00  0.00  0.00  0.00  0.00
  19                      1.00   1.00  0.00  0.00  0.00  0.00  0.00  0.00  0.00  0.00
  17                      1.00   1.00  0.00  0.00  0.00  0.00  0.00  0.00  0.00  0.00
  4                       1.00   1.00  0.00  0.00  0.00  0.00  0.00  0.00  0.00  0.00
  2                       1.00   0.00  0.00  0.00  0.00  1.00  0.00  0.00  0.19  0.00
  
  
  *************************
  Conduit Surcharge Summary
  *************************
  
  ----------------------------------------------------------------------------
                                                           Hours        Hours 
                         --------- Hours Full --------   Above Full   Capacity
  Conduit                Both Ends  Upstream  Dnstream   Normal Flow   Limited
  ----------------------------------------------------------------------------
  WSL49                       0.01      0.01      0.01      0.58         0.01
  WSL1475                     0.01      0.01      0.01      0.29         0.01
  WSL1476                     0.01      0.01      0.01      0.01         0.01
  WSL2295                     0.01      0.01      0.01      0.42         0.01
  WSL2298                     0.01      0.01      0.01      0.66         0.01
  WSL348                      3.87      3.87      3.88      0.01         0.01
  WSL175                      3.88      3.88      3.88      2.43         2.53
  XRpipe                      3.88      3.88      3.96      0.01         0.01
  
  
  ***************
  Pumping Summary
  ***************
  
  ---------------------------------------------------------------------------------------------------------
                                                  Min       Avg       Max     Total     Power    % Time Off
                        Percent   Number of      Flow      Flow      Flow    Volume     Usage    Pump Curve
  Pump                 Utilized   Start-Ups       MLD       MLD       MLD  10^6 ltr     Kw-hr    Low   High
  ---------------------------------------------------------------------------------------------------------
  XR-Pump-1               96.04           1      0.00      8.12      8.12     1.300      5.03    0.0    0.0
  XR-Pump-3               90.97          14      0.00      8.12      8.12     1.231      4.71    0.0    0.0
  XR-Pump-2               95.73           1      0.00      8.12      8.12     1.295      5.00    0.0    0.0
  XR-Pump-4               62.68           6      0.00      8.12      8.12     0.848      2.97    0.0    0.0
  CC-Pump-1                0.00           0      0.00      0.00      0.00     0.000      0.00    0.0    0.0
  CC-Pump-2                0.00           0      0.00      0.00      0.00     0.000      0.00    0.0    0.0
  JK-Pump-1                0.00           0      0.00      0.00      0.00     0.000      0.00    0.0    0.0
  JK-Pump-2                0.00           0      0.00      0.00      0.00     0.000      0.00    0.0    0.0
  
  
  ***************************
  Link Pollutant Load Summary
  ***************************
  
  ------------------------------------------------------------------------------------------
                                 COD         NH3-N            TN            TP            SS
  Link                            kg            kg            kg            kg            kg
  ------------------------------------------------------------------------------------------
  WSL49                     1473.145         0.000         0.000         0.000         0.000
  WSL1465                    719.309         0.000         0.000         0.000         0.000
  WSL1472                   1358.825         0.000         0.000         0.000         0.000
  WSL1475                   1490.857         0.000         0.000         0.000         0.000
  WSL1476                    112.908         0.000         0.000         0.000         0.000
  WSL1477                    111.061         0.000         0.000         0.000         0.000
  WSL1490                    706.092         0.000         0.000         0.000         0.000
  WSL1491                    709.935         0.000         0.000         0.000         0.000
  WSL1492                    716.022         0.000         0.000         0.000         0.000
  WSL1507                      0.739         0.000         0.000         0.000         0.000
  WSL1508                     70.086         0.000         0.000         0.000         0.000
  WSL1512                     70.366         0.000         0.000         0.000         0.000
  WSL1513                     71.646         0.000         0.000         0.000         0.000
  WSL1515                    632.866         0.000         0.000         0.000         0.000
  WSL1516                    111.704         0.000         0.000         0.000         0.000
  WSL1518                    108.789         0.000         0.000         0.000         0.000
  WSL1519                    109.245         0.000         0.000         0.000         0.000
  WSL1521                    110.191         0.000         0.000         0.000         0.000
  WSL1543                    108.955         0.000         0.000         0.000         0.000
  WSL1961                    693.967         0.000         0.000         0.000         0.000
  WSL1964                    702.452         0.000         0.000         0.000         0.000
  WSL2010                    331.251         0.000         0.000         0.000         0.000
  WSL2011                    336.218         0.000         0.000         0.000         0.000
  WSL2012                    341.438         0.000         0.000         0.000         0.000
  WSL2013                    367.215         0.000         0.000         0.000         0.000
  WSL2014                    503.727         0.000         0.000         0.000         0.000
  WSL2015                    504.570         0.000         0.000         0.000         0.000
  WSL2016                    577.140         0.000         0.000         0.000         0.000
  WSL2017                    579.026         0.000         0.000         0.000         0.000
  WSL2018                    626.211         0.000         0.000         0.000         0.000
  WSL2019                    627.823         0.000         0.000         0.000         0.000
  WSL2028                    326.816         0.000         0.000         0.000         0.000
  WSL2029                    583.674         0.000         0.000         0.000         0.000
  WSL2038                     44.744         0.000         0.000         0.000         0.000
  WSL2039                     50.218         0.000         0.000         0.000         0.000
  WSL2041                     47.871         0.000         0.000         0.000         0.000
  WSL2294                    308.088         0.000         0.000         0.000         0.000
  WSL2295                    308.814         0.000         0.000         0.000         0.000
  WSL2296                    317.720         0.000         0.000         0.000         0.000
  WSL2297                    320.692         0.000         0.000         0.000         0.000
  WSL2298                    312.218         0.000         0.000         0.000         0.000
  WSL2301                    321.775         0.000         0.000         0.000         0.000
  WSL2302                    326.442         0.000         0.000         0.000         0.000
  WSL2441                    307.503         0.000         0.000         0.000         0.000
  WSL2442                    148.477         0.000         0.000         0.000         0.000
  WSL2443                    147.165         0.000         0.000         0.000         0.000
  WSL2444                    144.103         0.000         0.000         0.000         0.000
  WSL2446                    142.157         0.000         0.000         0.000         0.000
  WSL2447                    138.912         0.000         0.000         0.000         0.000
  WSL2448                    135.460         0.000         0.000         0.000         0.000
  WSL2449                    131.803         0.000         0.000         0.000         0.000
  WSL2450                    129.398         0.000         0.000         0.000         0.000
  WSL2451                    128.139         0.000         0.000         0.000         0.000
  WSL2452                    126.605         0.000         0.000         0.000         0.000
  WSL2454                    122.520         0.000         0.000         0.000         0.000
  WSL2478                    120.968         0.000         0.000         0.000         0.000
  WSL2479                     86.650         0.000         0.000         0.000         0.000
  WSL2480                     83.505         0.000         0.000         0.000         0.000
  WSL2482                     78.951         0.000         0.000         0.000         0.000
  WSL2484                     53.081         0.000         0.000         0.000         0.000
  WSL2493                    151.192         0.000         0.000         0.000         0.000
  WSL2867                    633.720         0.000         0.000         0.000         0.000
  WSL2868                    637.180         0.000         0.000         0.000         0.000
  WSL348                    1039.125         0.000         0.000         0.000         0.000
  WSL175                    1045.808         0.000         0.000         0.000         0.000
  WSL1467                   1355.419         0.000         0.000         0.000         0.000
  WSL1473                   1361.749         0.000         0.000         0.000         0.000
  XRpipe                    1058.797         0.000         0.000         0.000         0.000
  8                            0.000         0.000         0.000         0.000         0.000
  19                           0.000         0.000         0.000         0.000         0.000
  17                           0.000         0.000         0.000         0.000         0.000
  4                            0.000         0.000         0.000         0.000         0.000
  2                         1502.255         0.000         0.000         0.000         0.000
  XR-Pump-1                  192.176         0.000         0.000         0.000         0.000
  XR-Pump-3                  180.719         0.000         0.000         0.000         0.000
  XR-Pump-2                  191.470         0.000         0.000         0.000         0.000
  XR-Pump-4                  117.827         0.000         0.000         0.000         0.000
  CC-Pump-1                    0.000         0.000         0.000         0.000         0.000
  CC-Pump-2                    0.000         0.000         0.000         0.000         0.000
  JK-Pump-1                    0.000         0.000         0.000         0.000         0.000
  JK-Pump-2                    0.000         0.000         0.000         0.000         0.000
  

  Analysis begun on:  Mon Mar 18 14:38:24 2019
  Analysis ended on:  Mon Mar 18 14:38:25 2019
  Total elapsed time: 00:00:01