
  EPA STORM WATER MANAGEMENT MODEL - VERSION 5.1 (Build 5.2.0.dev1)
  --------------------------------------------------------------

  
  *********************************************************
  NOTE: The summary statistics displayed in this report are
  based on results found at every computational time step,  
  not just on results from each reporting time step.
  *********************************************************
  
  ****************
  Analysis Options
  ****************
  Flow Units ............... MLD
  Process Models:
    Rainfall/Runoff ........ YES
    RDII ................... NO
    Snowmelt ............... NO
    Groundwater ............ NO
    Flow Routing ........... YES
    Ponding Allowed ........ NO
    Water Quality .......... YES
  Infiltration Method ...... GREEN_AMPT
  Flow Routing Method ...... DYNWAVE
  Starting Date ............ 08/28/2015 08:00:00
  Ending Date .............. 08/28/2015 12:00:00
  Antecedent Dry Days ...... 4.0
  Report Time Step ......... 00:01:00
  Wet Time Step ............ 00:01:00
  Dry Time Step ............ 00:01:00
  Routing Time Step ........ 5.00 sec
  Variable Time Step ....... YES
  Maximum Trials ........... 8
  Number of Threads ........ 1
  Head Tolerance ........... 0.001500 m
  
  
  **************************        Volume         Depth
  Runoff Quantity Continuity     hectare-m            mm
  **************************     ---------       -------
  Total Precipitation ......         6.603        23.408
  Evaporation Loss .........         0.000         0.000
  Infiltration Loss ........         2.701         9.574
  Surface Runoff ...........         1.831         6.492
  Final Storage ............         2.075         7.356
  Continuity Error (%) .....        -0.059
  
  
  **************************           COD         NH3-N            TN            TP            SS
  Runoff Quality Continuity             kg            kg            kg            kg            kg
  **************************    ----------    ----------    ----------    ----------    ----------
  Initial Buildup ..........     13074.240         0.000         0.000         0.000         0.000
  Surface Buildup ..........       106.707         0.000         0.000         0.000         0.000
  Wet Deposition ...........         0.000         0.000         0.000         0.000         0.000
  Sweeping Removal .........         0.000         0.000         0.000         0.000         0.000
  Infiltration Loss ........       226.440         0.000         0.000         0.000         0.000
  BMP Removal ..............         0.000         0.000         0.000         0.000         0.000
  Surface Runoff ...........      3692.574         0.000         0.000         0.000         0.000
  Remaining Buildup ........      9258.485         0.000         0.000         0.000         0.000
  Continuity Error (%) .....         0.026         0.000         0.000         0.000         0.000
  
  
  **************************        Volume        Volume
  Flow Routing Continuity        hectare-m      10^6 ltr
  **************************     ---------     ---------
  Dry Weather Inflow .......         0.000         0.000
  Wet Weather Inflow .......         1.826        18.256
  Groundwater Inflow .......         0.000         0.000
  RDII Inflow ..............         0.000         0.000
  External Inflow ..........         0.561         5.611
  External Outflow .........         1.050        10.503
  Flooding Loss ............         1.222        12.218
  Evaporation Loss .........         0.000         0.000
  Exfiltration Loss ........         0.000         0.000
  Initial Stored Volume ....         0.000         0.000
  Final Stored Volume ......         0.115         1.155
  Continuity Error (%) .....        -0.034
  
  
  **************************           COD         NH3-N            TN            TP            SS
  Quality Routing Continuity            kg            kg            kg            kg            kg
  **************************    ----------    ----------    ----------    ----------    ----------
  Dry Weather Inflow .......         0.000         0.000         0.000         0.000         0.000
  Wet Weather Inflow .......      3685.472         0.000         0.000         0.000         0.000
  Groundwater Inflow .......         0.000         0.000         0.000         0.000         0.000
  RDII Inflow ..............         0.000         0.000         0.000         0.000         0.000
  External Inflow ..........       937.005         0.000         0.000         0.000         0.000
  External Outflow .........      2063.950         0.000         0.000         0.000         0.000
  Flooding Loss ............      2387.569         0.000         0.000         0.000         0.000
  Exfiltration Loss ........         0.000         0.000         0.000         0.000         0.000
  Mass Reacted .............         0.000         0.000         0.000         0.000         0.000
  Initial Stored Mass ......         0.000         0.000         0.000         0.000         0.000
  Final Stored Mass ........       170.791         0.000         0.000         0.000         0.000
  Continuity Error (%) .....         0.004         0.000         0.000         0.000         0.000
  
  
  *************************
  Highest Continuity Errors
  *************************
  Node WS02003099 (1.17%)
  
  
  ***************************
  Time-Step Critical Elements
  ***************************
  Link WSL1477 (73.72%)
  Link WSL1516 (5.58%)
  Link WSL2448 (3.11%)
  
  
  ********************************
  Highest Flow Instability Indexes
  ********************************
  Link WSL1477 (27)
  Link WSL1516 (26)
  Link WSL1515 (24)
  Link WSL2867 (19)
  Link WSL1475 (17)
  
  
  *************************
  Routing Time Step Summary
  *************************
  Minimum Time Step           :     1.49 sec
  Average Time Step           :     2.82 sec
  Maximum Time Step           :     5.00 sec
  Percent in Steady State     :    -0.00
  Average Iterations per Step :     3.28
  Percent Not Converging      :    11.51
  
  
  ***************************
  Subcatchment Runoff Summary
  ***************************
  
  --------------------------------------------------------------------------------------------------------
                            Total      Total      Total      Total      Total       Total     Peak  Runoff
                           Precip      Runon       Evap      Infil     Runoff      Runoff   Runoff   Coeff
  Subcatchment                 mm         mm         mm         mm         mm    10^6 ltr      MLD
  --------------------------------------------------------------------------------------------------------
  1                         23.41      30.68       0.00      10.65      27.72        0.34     7.15   0.513
  2                         23.41       0.00       0.00       8.48       8.51        0.29     7.44   0.364
  3                         23.41       0.00       0.00       8.55       8.02        0.41    10.43   0.343
  4                         23.41       0.00       0.00       8.44       8.81        0.23     6.14   0.376
  5                         23.41      20.90       0.00      10.31      21.24        0.36     8.25   0.479
  6                         23.41       0.00       0.00       8.54       8.06        0.40    10.16   0.344
  7                         23.41       0.00       0.00      10.07       6.89       11.03   218.77   0.294
  8                         23.41       0.00       0.00       8.52       8.24        0.35     8.97   0.352
  9                         23.41       8.14       0.00       9.40      12.12        0.46    10.98   0.384
  17                        23.41       0.00       0.00       8.50       8.41        0.31     7.98   0.359
  18                        23.41       0.00       0.00       8.52       8.21        0.36     9.15   0.351
  28                        23.41      28.20       0.00      10.82      23.08        0.61    12.74   0.447
  29                        23.41      11.95       0.00       9.50      14.55        0.35     8.09   0.412
  30                        23.41      32.17       0.00      10.83      31.11        0.29     6.53   0.560
  31                        23.41       0.00       0.00       8.49       8.45        0.30     7.77   0.361
  33                        23.41       0.00       0.00       8.20      10.38        0.09     2.49   0.443
  34                        23.41      18.31       0.00      10.17      19.07        0.39     9.11   0.457
  35                        23.41       0.00       0.00       8.47       8.65        0.26     6.83   0.369
  36                        23.41      17.29       0.00      10.32      15.32        0.90    19.95   0.376
  39                        23.41       0.00       0.00       8.49       8.50        0.29     7.52   0.363
  40                        23.41       4.57       0.00       9.03      10.37        0.41    10.01   0.371
  41                        23.41       0.00       0.00       8.38       9.23        0.18     4.76   0.394
  42                        23.41       0.00       0.00       8.41       9.01        0.21     5.42   0.385
  43                        23.41       0.00       0.00       7.96      11.74        0.04     1.22   0.502
  44                        23.41     254.30       0.00      16.62     222.40        0.82    16.19   0.801
  45                        23.41       0.00       0.00       8.24      10.13        0.10     2.85   0.433
  46                        23.41      14.62       0.00       9.82      16.67        0.36     8.33   0.438
  47                        23.41       0.00       0.00       8.26      10.02        0.11     3.03   0.428
  48                        23.41       7.02       0.00       9.07      13.27        0.21     5.26   0.436
  55                        23.41      10.53       0.00       9.18      16.85        0.14     3.52   0.496
  56                        23.41      16.04       0.00       9.93      17.43        0.37     8.62   0.442
  57                        23.41       0.00       0.00       8.54       8.04        0.40    10.26   0.344
  59                        23.41       0.00       0.00       8.19      10.43        0.09     2.42   0.446
  60                        23.41      22.80       0.00       9.90      26.71        0.14     3.36   0.578
  61                        23.41       0.00       0.00       8.69       6.73        1.21    29.27   0.287
  62                        23.41       0.00       0.00       8.69       6.68        1.27    30.60   0.285
  64                        23.41       0.00       0.00       8.28       9.90        0.12     3.22   0.423
  
  
  ****************************
  Subcatchment Washoff Summary
  ****************************
  
  ------------------------------------------------------------------------------------------
                                 COD         NH3-N            TN            TP            SS
  Subcatchment                    kg            kg            kg            kg            kg
  ------------------------------------------------------------------------------------------
  1                           61.087         0.000         0.000         0.000         0.000
  2                            0.000         0.000         0.000         0.000         0.000
  3                            0.000         0.000         0.000         0.000         0.000
  4                           50.315         0.000         0.000         0.000         0.000
  5                          108.392         0.000         0.000         0.000         0.000
  6                           81.440         0.000         0.000         0.000         0.000
  7                         2110.139         0.000         0.000         0.000         0.000
  8                           72.314         0.000         0.000         0.000         0.000
  9                          130.165         0.000         0.000         0.000         0.000
  17                          64.633         0.000         0.000         0.000         0.000
  18                          73.637         0.000         0.000         0.000         0.000
  28                         219.548         0.000         0.000         0.000         0.000
  29                         113.554         0.000         0.000         0.000         0.000
  30                          79.232         0.000         0.000         0.000         0.000
  31                          62.983         0.000         0.000         0.000         0.000
  33                          20.944         0.000         0.000         0.000         0.000
  34                         122.370         0.000         0.000         0.000         0.000
  35                          55.682         0.000         0.000         0.000         0.000
  36                         306.998         0.000         0.000         0.000         0.000
  39                          61.042         0.000         0.000         0.000         0.000
  40                         104.985         0.000         0.000         0.000         0.000
  41                          39.343         0.000         0.000         0.000         0.000
  42                          44.623         0.000         0.000         0.000         0.000
  43                          10.266         0.000         0.000         0.000         0.000
  44                         280.628         0.000         0.000         0.000         0.000
  45                          23.940         0.000         0.000         0.000         0.000
  46                         116.691         0.000         0.000         0.000         0.000
  47                          25.395         0.000         0.000         0.000         0.000
  48                          60.252         0.000         0.000         0.000         0.000
  55                          42.081         0.000         0.000         0.000         0.000
  56                         120.603         0.000         0.000         0.000         0.000
  57                          82.209         0.000         0.000         0.000         0.000
  59                          20.368         0.000         0.000         0.000         0.000
  60                          39.832         0.000         0.000         0.000         0.000
  61                         222.389         0.000         0.000         0.000         0.000
  62                         231.867         0.000         0.000         0.000         0.000
  64                          27.004         0.000         0.000         0.000         0.000
  ------------------------------------------------------------------------------------------
  System                    5286.949         0.000         0.000         0.000         0.000
  
  
  ******************
  Node Depth Summary
  ******************
  
  ---------------------------------------------------------------------------------
                                 Average  Maximum  Maximum  Time of Max    Reported
                                   Depth    Depth      HGL   Occurrence   Max Depth
  Node                 Type       Meters   Meters   Meters  days hr:min      Meters
  ---------------------------------------------------------------------------------
  WS01000070           JUNCTION     0.00     0.00     0.00     0  00:00        0.00
  WS01000323           JUNCTION     0.00     0.00     0.00     0  00:00        0.00
  WS01000533           JUNCTION     0.00     0.00     6.86     0  00:00        0.00
  WS01005172           JUNCTION     0.00     0.00     0.00     0  00:00        0.00
  WS01005181           JUNCTION     0.00     0.00     0.00     0  00:00        0.00
  WS01009841           JUNCTION     0.00     0.00     0.00     0  00:00        0.00
  WS02000078           JUNCTION     0.00     0.00     0.00     0  00:00        0.00
  WS02000112           JUNCTION     0.00     0.00     0.00     0  00:00        0.00
  WS02000136           JUNCTION     0.00     0.00     0.00     0  00:00        0.00
  WS02001211           JUNCTION     0.43     0.52     5.36     0  03:08        0.52
  WS02001212           JUNCTION     0.38     0.52     5.32     0  03:09        0.51
  WS02001213           JUNCTION     0.47     0.62     5.32     0  03:09        0.62
  WS02003059           JUNCTION     0.45     0.66     5.31     0  03:08        0.65
  WS02003060           JUNCTION     0.51     0.75     5.30     0  03:11        0.74
  WS02003066           JUNCTION     0.21     0.40     5.70     0  03:09        0.39
  WS02003067           JUNCTION     0.36     0.64     5.96     0  03:05        0.63
  WS02003071           JUNCTION     0.57     0.80     5.20     0  03:04        0.80
  WS02003072           JUNCTION     0.48     0.72     5.09     0  03:03        0.72
  WS02003073           JUNCTION     0.56     0.86     5.10     0  03:05        0.83
  WS02003076           JUNCTION     0.51     0.79     5.02     0  03:12        0.77
  WS02003077           JUNCTION     0.09     0.16     5.17     0  03:04        0.16
  WS02003078           JUNCTION     0.06     0.10     7.00     0  03:04        0.10
  WS02003079           JUNCTION     0.19     0.33     7.24     0  03:04        0.33
  WS02003093           JUNCTION     0.05     0.16     7.50     0  03:01        0.16
  WS02003094           JUNCTION     0.15     0.28     7.50     0  03:01        0.28
  WS02003098           JUNCTION     0.10     0.23     7.40     0  03:03        0.23
  WS02003099           JUNCTION     0.20     0.37     7.41     0  03:02        0.37
  WS02003102           JUNCTION     0.18     0.35     7.38     0  03:03        0.35
  WS02003103           JUNCTION     0.20     0.37     7.34     0  03:03        0.37
  WS02003104           JUNCTION     0.20     0.36     7.32     0  03:04        0.36
  WS02003106           JUNCTION     0.20     0.36     7.29     0  03:04        0.36
  WS02004050           JUNCTION     0.35     0.50     4.72     0  03:04        0.50
  WS02004053           JUNCTION     0.00     0.00     0.00     0  00:00        0.00
  WS02004136           JUNCTION     0.17     0.18     6.91     0  01:21        0.18
  WS02004139           JUNCTION     0.36     0.41     5.37     0  03:11        0.41
  WS02004401           JUNCTION     0.33     0.61     6.61     0  03:06        0.61
  WS02004402           JUNCTION     0.35     0.63     6.59     0  03:06        0.63
  WS02004403           JUNCTION     0.34     0.64     6.57     0  03:05        0.64
  WS02004404           JUNCTION     0.42     0.72     6.57     0  03:05        0.72
  WS02004405           JUNCTION     0.43     0.72     6.56     0  03:05        0.72
  WS02004406           JUNCTION     0.41     0.70     6.53     0  03:05        0.70
  WS02004407           JUNCTION     0.39     0.67     6.47     0  03:06        0.67
  WS02004409           JUNCTION     0.38     0.65     6.42     0  03:07        0.65
  WS02004410           JUNCTION     0.37     0.63     6.35     0  03:06        0.62
  WS02004411           JUNCTION     0.35     0.58     6.26     0  03:06        0.58
  WS02004412           JUNCTION     0.30     0.52     6.16     0  03:05        0.52
  WS02004413           JUNCTION     0.32     0.56     6.03     0  03:05        0.55
  WS02004997           JUNCTION     5.88     6.69     8.30     0  02:00        6.68
  WS02005192           JUNCTION     0.15     0.28     8.15     0  03:01        0.28
  WS02005193           JUNCTION     0.13     0.23     8.05     0  03:01        0.23
  WS02005196           JUNCTION     0.15     0.27     8.12     0  03:01        0.27
  WS02006109           JUNCTION     0.36     0.61     7.23     0  03:05        0.61
  WS02006110           JUNCTION     0.34     0.56     7.16     0  03:06        0.56
  WS02006111           JUNCTION     0.18     0.33     6.91     0  03:06        0.33
  WS02006112           JUNCTION     0.35     0.60     6.72     0  03:06        0.60
  WS02006113           JUNCTION     0.29     0.48     7.07     0  03:05        0.48
  WS02006115           JUNCTION     0.31     0.57     6.67     0  03:06        0.57
  WS02006116           JUNCTION     0.34     0.60     6.64     0  03:06        0.60
  WS02006183           JUNCTION     0.00     0.00     0.00     0  00:00        0.00
  WS02006228           JUNCTION     0.36     0.62     7.27     0  03:05        0.62
  WS02006229           JUNCTION     0.32     0.59     7.28     0  03:05        0.59
  WS02006230           JUNCTION     0.29     0.55     7.30     0  03:05        0.55
  WS02006231           JUNCTION     0.20     0.40     7.30     0  03:05        0.40
  WS02006232           JUNCTION     0.19     0.35     7.38     0  03:04        0.35
  WS02006234           JUNCTION     0.18     0.31     7.47     0  03:05        0.31
  WS02006235           JUNCTION     0.22     0.36     7.53     0  03:05        0.36
  WS02006238           JUNCTION     0.22     0.36     7.54     0  03:05        0.36
  WS02006239           JUNCTION     0.23     0.39     7.60     0  03:04        0.39
  WS02006242           JUNCTION     0.24     0.41     7.71     0  03:04        0.41
  WS02006240           JUNCTION     0.19     0.35     7.64     0  03:04        0.35
  WS02006243           JUNCTION     0.18     0.34     7.76     0  03:03        0.33
  WS02006245           JUNCTION     0.19     0.34     7.83     0  03:03        0.34
  WS02006247           JUNCTION     0.21     0.37     7.88     0  03:03        0.37
  WS02006248           JUNCTION     0.15     0.30     7.89     0  03:02        0.30
  WS02006249           JUNCTION     0.17     0.32     7.92     0  03:02        0.32
  WS02006251           JUNCTION     0.16     0.30     7.97     0  03:02        0.30
  WS02006253           JUNCTION     0.10     0.19     7.99     0  03:02        0.19
  WS02618401           JUNCTION     0.00     0.00     0.00     0  00:00        0.00
  WS8802               JUNCTION     0.00     0.00     4.38     0  00:00        0.00
  WSA1649              JUNCTION     0.00     0.00     0.00     0  00:00        0.00
  WSF200               JUNCTION     0.20     0.40     5.50     0  03:03        0.40
  XR-Inflow            JUNCTION     5.74     6.55     8.36     0  02:00        6.55
  WS02004114           JUNCTION     5.86     6.65     8.25     0  02:00        6.65
  outfall-2            OUTFALL      0.00     0.00     7.00     0  00:00        0.00
  outfall-5            OUTFALL      0.00     0.00     7.67     0  00:00        0.00
  outfall-14           OUTFALL      0.00     0.00     7.66     0  00:00        0.00
  outfall-16           OUTFALL      0.00     0.00     8.39     0  00:00        0.00
  12                   OUTFALL      0.35     0.50     0.50     0  03:07        0.50
  XR-storage           STORAGE      6.93     7.72     8.22     0  01:40        7.72
  CC-storage           STORAGE      4.88     5.63     8.81     0  01:34        5.63
  JK-storage           STORAGE      4.03     4.80     7.80     0  01:41        4.80
  
  
  *******************
  Node Inflow Summary
  *******************
  
  -------------------------------------------------------------------------------------------------
                                  Maximum  Maximum                  Lateral       Total        Flow
                                  Lateral    Total  Time of Max      Inflow      Inflow     Balance
                                   Inflow   Inflow   Occurrence      Volume      Volume       Error
  Node                 Type           MLD      MLD  days hr:min    10^6 ltr    10^6 ltr     Percent
  -------------------------------------------------------------------------------------------------
  WS01000070           JUNCTION      0.00     0.00     0  00:00           0           0       0.000 ltr
  WS01000323           JUNCTION      0.00     0.00     0  00:00           0           0       0.000 ltr
  WS01000533           JUNCTION      0.00     0.00     0  00:00           0           0       0.000 ltr
  WS01005172           JUNCTION      0.00     0.00     0  00:00           0           0       0.000 ltr
  WS01005181           JUNCTION      0.00     0.00     0  00:00           0           0       0.000 ltr
  WS01009841           JUNCTION      0.00     0.00     0  00:00           0           0       0.000 ltr
  WS02000078           JUNCTION      0.00     0.00     0  00:00           0           0       0.000 ltr
  WS02000112           JUNCTION      0.00     0.00     0  00:00           0           0       0.000 ltr
  WS02000136           JUNCTION      0.00     0.00     0  00:00           0           0       0.000 ltr
  WS02001211           JUNCTION      0.25    34.59     0  03:19      0.0407        4.88       0.536
  WS02001212           JUNCTION      0.21    35.85     0  03:13      0.0346        4.88       0.304
  WS02001213           JUNCTION      0.30    39.23     0  03:21      0.0489        4.92       0.422
  WS02003059           JUNCTION      0.23    37.99     0  03:23      0.0378        4.94       0.539
  WS02003060           JUNCTION      0.16   127.67     0  03:09      0.0252        9.55       0.434
  WS02003066           JUNCTION      0.08   105.97     0  03:07      0.0122        4.61       0.228
  WS02003067           JUNCTION      0.26    84.56     0  03:05      0.0395         4.6       0.224
  WS02003071           JUNCTION      0.35   119.61     0  03:08      0.0538        9.56       0.459
  WS02003072           JUNCTION      0.24   120.12     0  03:05      0.0382        9.56       0.286
  WS02003073           JUNCTION      0.07   138.29     0  03:04     0.00978        10.4       0.278
  WS02003076           JUNCTION      0.72   153.86     0  03:05        0.12        10.5       0.163
  WS02003077           JUNCTION      0.04    18.18     0  03:04      0.0059       0.835       0.126
  WS02003078           JUNCTION      0.03    21.11     0  03:04     0.00419       0.829      -0.000
  WS02003079           JUNCTION      0.04    18.12     0  03:04     0.00561       0.827       0.253
  WS02003093           JUNCTION      0.02     0.16     0  03:01     0.00306     0.00417       5.717
  WS02003094           JUNCTION     11.03    11.03     0  03:01       0.467       0.471       0.887
  WS02003098           JUNCTION      0.02    10.62     0  03:01     0.00293       0.468       0.584
  WS02003099           JUNCTION      0.07    10.41     0  03:03      0.0109       0.476       1.184
  WS02003102           JUNCTION      9.00    18.30     0  03:01       0.353       0.824       0.598
  WS02003103           JUNCTION      0.02    18.14     0  03:03     0.00239       0.821       0.421
  WS02003104           JUNCTION      0.02    18.11     0  03:03     0.00302       0.821       0.359
  WS02003106           JUNCTION      0.05    18.12     0  03:03     0.00727       0.825       0.439
  WS02004050           JUNCTION      0.72   163.04     0  03:14       0.119        10.6       0.625
  WS02004053           JUNCTION      0.00     0.00     0  00:00           0           0       0.000 ltr
  WS02004136           JUNCTION      0.44    32.92     0  01:16      0.0703        4.79       0.067
  WS02004139           JUNCTION      0.38    33.60     0  01:19      0.0619        4.85       0.371
  WS02004401           JUNCTION      0.05    51.97     0  03:07     0.00897        2.82       0.343
  WS02004402           JUNCTION      0.22    52.27     0  03:07      0.0335        2.85       0.319
  WS02004403           JUNCTION      0.23    52.58     0  03:08      0.0349        2.87       0.283
  WS02004404           JUNCTION      0.24    52.91     0  03:08      0.0365         2.9       0.253
  WS02004405           JUNCTION      6.21    56.78     0  03:07       0.246        3.14       0.353
  WS02004406           JUNCTION     12.85    67.69     0  03:06       0.626        3.75       0.458
  WS02004407           JUNCTION      0.11    67.85     0  03:06      0.0171        3.75       0.409
  WS02004409           JUNCTION      8.43    74.88     0  03:06       0.394        4.13       0.332
  WS02004410           JUNCTION      0.15    75.08     0  03:06      0.0226        4.14       0.331
  WS02004411           JUNCTION      0.25    75.67     0  03:06      0.0379        4.17       0.289
  WS02004412           JUNCTION     10.25    83.03     0  03:05       0.412        4.57       0.222
  WS02004413           JUNCTION      0.11    83.12     0  03:04      0.0172        4.57       0.216
  WS02004997           JUNCTION      0.42    63.57     0  03:00      0.0693        7.69       0.512
  WS02005192           JUNCTION     10.36    10.36     0  03:01       0.419       0.419       0.141
  WS02005193           JUNCTION      0.09    10.47     0  03:01      0.0146       0.451       0.259
  WS02005196           JUNCTION      0.12    10.43     0  03:01       0.019       0.438       0.294
  WS02006109           JUNCTION      0.08    43.63     0  03:06      0.0135        2.32       0.496
  WS02006110           JUNCTION      0.08    43.74     0  03:06      0.0132        2.32       0.459
  WS02006111           JUNCTION      0.24    51.50     0  03:03      0.0366        2.77       0.139
  WS02006112           JUNCTION      0.18    51.63     0  03:05      0.0273         2.8       0.371
  WS02006113           JUNCTION     10.57    51.31     0  03:04       0.435        2.74       0.296
  WS02006115           JUNCTION      0.08    51.68     0  03:06      0.0134         2.8       0.367
  WS02006116           JUNCTION      0.24    51.88     0  03:06       0.036        2.82       0.354
  WS02006183           JUNCTION      0.00     0.00     0  00:00           0           0       0.000 ltr
  WS02006228           JUNCTION     16.34    43.54     0  03:05       0.848        2.31       0.367
  WS02006229           JUNCTION      0.13    27.28     0  03:05        0.02        1.47       0.476
  WS02006230           JUNCTION      0.07    27.16     0  03:05      0.0116        1.46       0.451
  WS02006231           JUNCTION      0.13    27.11     0  03:05      0.0205        1.45       0.214
  WS02006232           JUNCTION      7.52    27.00     0  03:04         0.3        1.43       0.222
  WS02006234           JUNCTION      0.14    21.53     0  03:05      0.0216        1.13       0.250
  WS02006235           JUNCTION      0.14    21.39     0  03:05      0.0223        1.12       0.186
  WS02006238           JUNCTION      0.15    21.27     0  03:05      0.0235         1.1       0.242
  WS02006239           JUNCTION      0.11    21.15     0  03:04      0.0174        1.08       0.413
  WS02006242           JUNCTION      0.08    21.08     0  03:03      0.0129        1.06       0.525
  WS02006240           JUNCTION      0.06    21.08     0  03:04     0.00992        1.06       0.360
  WS02006243           JUNCTION      0.17    21.05     0  03:03      0.0269        1.05       0.334
  WS02006245           JUNCTION      0.07    20.90     0  03:02      0.0113        1.03       0.292
  WS02006247           JUNCTION      7.28    20.86     0  03:02       0.359        1.02       0.286
  WS02006248           JUNCTION      0.12    14.05     0  03:02      0.0192       0.659       0.221
  WS02006249           JUNCTION      0.19    13.95     0  03:02      0.0286       0.642       0.364
  WS02006251           JUNCTION      3.58    13.86     0  03:01       0.149       0.615       0.344
  WS02006253           JUNCTION      0.11    10.55     0  03:01      0.0173       0.467       0.158
  WS02618401           JUNCTION      0.00     0.00     0  00:00           0           0       0.000 ltr
  WS8802               JUNCTION      0.00     0.00     0  00:00           0           0       0.000 ltr
  WSA1649              JUNCTION      0.00     0.00     0  00:00           0           0       0.000 ltr
  WSF200               JUNCTION      0.14    98.41     0  03:09      0.0216        4.62       0.001
  XR-Inflow            JUNCTION    236.33   236.33     0  03:01        14.3        14.3       0.173
  WS02004114           JUNCTION      0.57    64.10     0  02:56      0.0916        7.74       0.316
  outfall-2            OUTFALL       0.00     0.00     0  00:00           0           0       0.000 ltr
  outfall-5            OUTFALL       0.00     0.00     0  00:00           0           0       0.000 ltr
  outfall-14           OUTFALL       0.00     0.00     0  00:00           0           0       0.000 ltr
  outfall-16           OUTFALL       0.00     0.00     0  00:00           0           0       0.000 ltr
  12                   OUTFALL       0.00   137.71     0  03:07           0        10.5       0.000
  XR-storage           STORAGE       0.00    64.10     0  02:52           0        7.72       0.607
  CC-storage           STORAGE      30.73    30.73     0  03:01         1.5         1.5      -0.001
  JK-storage           STORAGE      31.50    31.50     0  03:01        1.44        1.44       0.005
  
  
  **********************
  Node Surcharge Summary
  **********************
  
  Surcharging occurs when water rises above the top of the highest conduit.
  ---------------------------------------------------------------------
                                               Max. Height   Min. Depth
                                   Hours       Above Crown    Below Rim
  Node                 Type      Surcharged         Meters       Meters
  ---------------------------------------------------------------------
  WS01000070           JUNCTION        4.00          0.000        0.000
  WS01000323           JUNCTION        4.00          0.000        0.000
  WS01000533           JUNCTION        4.00          0.000        2.147
  WS01005172           JUNCTION        4.00          0.000        0.000
  WS01005181           JUNCTION        4.00          0.000        0.000
  WS01009841           JUNCTION        4.00          0.000        0.000
  WS02000078           JUNCTION        4.00          0.000        0.000
  WS02000112           JUNCTION        4.00          0.000        0.000
  WS02000136           JUNCTION        4.00          0.000        0.000
  WS02004053           JUNCTION        4.00          0.000        0.000
  WS02004997           JUNCTION        3.88          5.790        0.210
  WS02006183           JUNCTION        4.00          0.000        0.000
  WS02618401           JUNCTION        4.00          0.000        0.000
  WS8802               JUNCTION        4.00          0.000        4.942
  WSA1649              JUNCTION        4.00          0.000        0.000
  XR-Inflow            JUNCTION        3.87          5.650        0.000
  WS02004114           JUNCTION        3.88          5.751        0.764
  
  
  *********************
  Node Flooding Summary
  *********************
  
  Flooding refers to all water that overflows a node, whether it ponds or not.
  --------------------------------------------------------------------------
                                                             Total   Maximum
                                 Maximum   Time of Max       Flood    Ponded
                        Hours       Rate    Occurrence      Volume     Depth
  Node                 Flooded       MLD   days hr:min    10^6 ltr    Meters
  --------------------------------------------------------------------------
  XR-Inflow               1.96    173.16      0  03:01       6.690     0.000
  XR-storage              2.33     31.62      0  02:52       2.885     0.000
  CC-storage              2.42     30.73      0  03:01       1.337     0.000
  JK-storage              2.31     31.49      0  03:01       1.307     0.000
  
  
  **********************
  Storage Volume Summary
  **********************
  
  --------------------------------------------------------------------------------------------------
                         Average     Avg  Evap Exfil       Maximum     Max    Time of Max    Maximum
                          Volume    Pcnt  Pcnt  Pcnt        Volume    Pcnt     Occurrence    Outflow
  Storage Unit           1000 m3    Full  Loss  Loss       1000 m3    Full    days hr:min        MLD
  --------------------------------------------------------------------------------------------------
  XR-storage               0.056      90     0     0         0.063     100       0  01:40      32.48
  CC-storage               0.138      87     0     0         0.159     100       0  01:34       0.00
  JK-storage               0.114      84     0     0         0.136     100       0  01:41       0.00
  
  
  ***********************
  Outfall Loading Summary
  ***********************
  
  ---------------------------------------------------------------------------------------------------------------------------------
                         Flow       Avg       Max       Total         Total         Total         Total         Total         Total
                         Freq      Flow      Flow      Volume           COD         NH3-N            TN            TP            SS
  Outfall Node           Pcnt       MLD       MLD    10^6 ltr            kg            kg            kg            kg            kg
  ---------------------------------------------------------------------------------------------------------------------------------
  outfall-2              0.00      0.00      0.00       0.000         0.000         0.000         0.000         0.000         0.000
  outfall-5              0.00      0.00      0.00       0.000         0.000         0.000         0.000         0.000         0.000
  outfall-14             0.00      0.00      0.00       0.000         0.000         0.000         0.000         0.000         0.000
  outfall-16             0.00      0.00      0.00       0.000         0.000         0.000         0.000         0.000         0.000
  12                    99.98     75.37    137.71      10.502      2064.181         0.000         0.000         0.000         0.000
  ---------------------------------------------------------------------------------------------------------------------------------
  System                20.00     75.37    137.71      10.502      2064.181         0.000         0.000         0.000         0.000
  
  
  ********************
  Link Flow Summary
  ********************
  
  -----------------------------------------------------------------------------
                                 Maximum  Time of Max   Maximum    Max/    Max/
                                  |Flow|   Occurrence   |Veloc|    Full    Full
  Link                 Type          MLD  days hr:min     m/sec    Flow   Depth
  -----------------------------------------------------------------------------
  WSL49                CONDUIT    153.14     0  03:05      2.39    1.90    0.67
  WSL1465              CONDUIT     40.82     0  03:22      1.62    0.37    0.69
  WSL1472              CONDUIT    119.90     0  03:05      1.92    1.37    0.63
  WSL1475              CONDUIT    162.32     0  03:14      2.96    1.73    0.45
  WSL1476              CONDUIT     18.16     0  03:04      0.73    0.09    0.60
  WSL1477              CONDUIT     21.09     0  03:04      2.63    0.83    0.36
  WSL1490              CONDUIT     35.64     0  03:13      1.37    0.58    0.52
  WSL1491              CONDUIT     38.95     0  03:21      1.39    0.23    0.57
  WSL1492              CONDUIT     37.77     0  03:23      1.35    0.58    0.64
  WSL1507              CONDUIT      0.24     0  03:02      0.11    0.00    0.28
  WSL1508              CONDUIT     10.61     0  03:01      0.90    0.30    0.32
  WSL1512              CONDUIT     10.36     0  03:03      0.62    0.07    0.30
  WSL1513              CONDUIT     10.60     0  03:03      0.57    0.62    0.45
  WSL1515              CONDUIT    105.90     0  03:07      2.83    1.03    0.42
  WSL1516              CONDUIT     18.15     0  03:04      4.71    0.06    0.22
  WSL1518              CONDUIT     18.13     0  03:03      0.96    0.36    0.45
  WSL1519              CONDUIT     18.08     0  03:03      0.96    0.45    0.45
  WSL1521              CONDUIT     18.09     0  03:04      1.01    0.52    0.43
  WSL1543              CONDUIT     18.09     0  03:03      0.94    0.56    0.46
  WSL1961              CONDUIT     33.21     0  01:19      2.61    0.07    0.30
  WSL1964              CONDUIT     34.35     0  03:19      1.28    0.19    0.39
  WSL2010              CONDUIT     52.40     0  03:08      1.16    0.67    0.63
  WSL2011              CONDUIT     52.72     0  03:08      1.09    0.34    0.68
  WSL2012              CONDUIT     52.97     0  03:08      1.02    0.81    0.72
  WSL2013              CONDUIT     56.87     0  03:07      1.11    1.41    0.71
  WSL2014              CONDUIT     67.75     0  03:06      1.38    1.08    0.68
  WSL2015              CONDUIT     68.07     0  03:06      1.45    0.91    0.66
  WSL2016              CONDUIT     74.96     0  03:06      1.66    0.86    0.64
  WSL2017              CONDUIT     75.47     0  03:06      1.78    0.92    0.60
  WSL2018              CONDUIT     83.02     0  03:04      2.32    0.50    0.54
  WSL2019              CONDUIT     84.35     0  03:05      2.20    0.50    0.60
  WSL2028              CONDUIT     52.09     0  03:07      1.18    0.56    0.62
  WSL2029              CONDUIT     75.66     0  03:06      2.01    0.96    0.55
  WSL2038              CONDUIT     10.32     0  03:01      0.96    0.51    0.45
  WSL2039              CONDUIT     10.45     0  03:01      1.35    0.54    0.35
  WSL2041              CONDUIT     10.39     0  03:01      1.08    0.51    0.42
  WSL2294              CONDUIT     43.67     0  03:06      1.30    1.47    0.73
  WSL2295              CONDUIT     43.83     0  03:06      1.49    1.97    0.65
  WSL2296              CONDUIT     51.48     0  03:05      1.97    0.29    0.59
  WSL2297              CONDUIT     51.61     0  03:06      1.27    0.99    0.58
  WSL2298              CONDUIT     51.30     0  03:03      2.33    2.36    0.51
  WSL2301              CONDUIT     51.69     0  03:06      1.25    0.48    0.59
  WSL2302              CONDUIT     51.91     0  03:07      1.21    0.64    0.61
  WSL2441              CONDUIT     43.55     0  03:06      1.22    1.12    0.77
  WSL2442              CONDUIT     27.17     0  03:05      0.94    0.69    0.82
  WSL2443              CONDUIT     27.09     0  03:05      1.13    0.42    0.68
  WSL2444              CONDUIT     27.00     0  03:05      1.54    0.43    0.54
  WSL2446              CONDUIT     21.56     0  03:05      1.42    0.37    0.47
  WSL2447              CONDUIT     21.41     0  03:05      1.37    1.10    0.48
  WSL2448              CONDUIT     21.27     0  03:05      1.23    0.60    0.52
  WSL2449              CONDUIT     21.14     0  03:05      1.16    0.74    0.54
  WSL2450              CONDUIT     21.05     0  03:04      1.17    0.44    0.53
  WSL2451              CONDUIT     21.02     0  03:04      1.13    1.37    0.55
  WSL2452              CONDUIT     21.01     0  03:03      1.16    0.40    0.53
  WSL2454              CONDUIT     20.90     0  03:03      1.32    0.49    0.48
  WSL2478              CONDUIT     20.83     0  03:02      1.24    0.74    0.51
  WSL2479              CONDUIT     14.08     0  03:03      0.91    0.27    0.47
  WSL2480              CONDUIT     13.95     0  03:02      0.99    0.65    0.44
  WSL2482              CONDUIT     13.80     0  03:02      0.98    0.36    0.44
  WSL2484              CONDUIT     10.54     0  03:02      1.02    0.15    0.35
  WSL2493              CONDUIT     27.29     0  03:06      0.77    0.46    0.76
  WSL2867              CONDUIT     98.29     0  03:09      3.87    0.20    0.31
  WSL2868              CONDUIT     91.41     0  03:04      2.08    0.17    0.47
  WSL348               CONDUIT     63.16     0  03:00      1.88    0.58    1.00
  WSL175               CONDUIT     63.56     0  03:00      2.29    2.14    1.00
  WSL1467              CONDUIT    119.32     0  03:08      1.84    0.63    0.64
  WSL1473              CONDUIT    121.67     0  03:14      2.02    0.50    0.65
  XRpipe               CONDUIT     64.10     0  02:52      2.54    0.16    1.00
  8                    CONDUIT      0.00     0  00:00      0.00    0.00    0.00
  19                   CONDUIT      0.00     0  00:00      0.00    0.00    0.00
  17                   CONDUIT      0.00     0  00:00      0.00    0.00    0.00
  4                    CONDUIT      0.00     0  00:00      0.00    0.00    0.00
  2                    CONDUIT    137.71     0  03:07      4.07    0.50    0.50
  XR-Pump-1            PUMP         8.12     0  00:09              1.00
  XR-Pump-3            PUMP         8.12     0  00:11              1.00
  XR-Pump-2            PUMP         8.12     0  00:10              1.00
  XR-Pump-4            PUMP         8.12     0  01:16              1.00
  CC-Pump-1            PUMP         0.00     0  00:00              0.00
  CC-Pump-2            PUMP         0.00     0  00:00              0.00
  JK-Pump-1            PUMP         0.00     0  00:00              0.00
  JK-Pump-2            PUMP         0.00     0  00:00              0.00
  
  
  ***************************
  Flow Classification Summary
  ***************************
  
  -------------------------------------------------------------------------------------
                      Adjusted    ---------- Fraction of Time in Flow Class ---------- 
                       /Actual         Up    Down  Sub   Sup   Up    Down  Norm  Inlet 
  Conduit               Length    Dry  Dry   Dry   Crit  Crit  Crit  Crit  Ltd   Ctrl  
  -------------------------------------------------------------------------------------
  WSL49                   1.00   0.00  0.00  0.00  1.00  0.00  0.00  0.00  0.00  0.00
  WSL1465                 1.00   0.00  0.00  0.00  1.00  0.00  0.00  0.00  0.10  0.00
  WSL1472                 1.00   0.00  0.00  0.00  1.00  0.00  0.00  0.00  0.00  0.00
  WSL1475                 1.00   0.00  0.00  0.00  0.18  0.82  0.00  0.00  0.01  0.00
  WSL1476                 1.00   0.00  0.00  0.00  1.00  0.00  0.00  0.00  1.00  0.00
  WSL1477                 1.00   0.00  0.00  0.00  0.01  0.99  0.00  0.00  0.59  0.00
  WSL1490                 1.00   0.00  0.00  0.00  1.00  0.00  0.00  0.00  0.00  0.00
  WSL1491                 1.00   0.00  0.00  0.00  1.00  0.00  0.00  0.00  0.05  0.00
  WSL1492                 1.00   0.00  0.00  0.00  1.00  0.00  0.00  0.00  0.01  0.00
  WSL1507                 1.00   0.00  0.00  0.00  1.00  0.00  0.00  0.00  0.45  0.00
  WSL1508                 1.00   0.00  0.00  0.00  1.00  0.00  0.00  0.00  0.00  0.00
  WSL1512                 1.00   0.00  0.00  0.00  1.00  0.00  0.00  0.00  0.87  0.00
  WSL1513                 1.00   0.00  0.00  0.00  1.00  0.00  0.00  0.00  0.00  0.00
  WSL1515                 1.00   0.00  0.00  0.00  0.13  0.87  0.00  0.00  0.05  0.00
  WSL1516                 1.00   0.00  0.00  0.00  0.00  1.00  0.00  0.00  1.00  0.00
  WSL1518                 1.00   0.00  0.00  0.00  1.00  0.00  0.00  0.00  0.40  0.00
  WSL1519                 1.00   0.00  0.00  0.00  1.00  0.00  0.00  0.00  0.32  0.00
  WSL1521                 1.00   0.00  0.00  0.00  1.00  0.00  0.00  0.00  0.02  0.00
  WSL1543                 1.00   0.00  0.00  0.00  1.00  0.00  0.00  0.00  0.02  0.00
  WSL1961                 1.00   0.00  0.00  0.00  0.02  0.98  0.00  0.00  0.98  0.00
  WSL1964                 1.00   0.00  0.00  0.00  1.00  0.00  0.00  0.00  0.05  0.00
  WSL2010                 1.00   0.00  0.00  0.00  1.00  0.00  0.00  0.00  0.00  0.00
  WSL2011                 1.00   0.00  0.00  0.00  1.00  0.00  0.00  0.00  0.27  0.00
  WSL2012                 1.00   0.00  0.00  0.00  1.00  0.00  0.00  0.00  0.00  0.00
  WSL2013                 1.00   0.00  0.00  0.00  1.00  0.00  0.00  0.00  0.00  0.00
  WSL2014                 1.00   0.00  0.00  0.00  1.00  0.00  0.00  0.00  0.00  0.00
  WSL2015                 1.00   0.00  0.00  0.00  1.00  0.00  0.00  0.00  0.02  0.00
  WSL2016                 1.00   0.00  0.00  0.00  1.00  0.00  0.00  0.00  0.01  0.00
  WSL2017                 1.00   0.00  0.00  0.00  1.00  0.00  0.00  0.00  0.04  0.00
  WSL2018                 1.00   0.00  0.00  0.00  0.01  0.99  0.00  0.00  0.07  0.00
  WSL2019                 1.00   0.00  0.00  0.00  0.54  0.46  0.00  0.00  0.11  0.00
  WSL2028                 1.00   0.00  0.00  0.00  1.00  0.00  0.00  0.00  0.06  0.00
  WSL2029                 1.00   0.00  0.00  0.00  0.80  0.20  0.00  0.00  0.00  0.00
  WSL2038                 1.00   0.00  0.00  0.00  1.00  0.00  0.00  0.00  0.02  0.00
  WSL2039                 1.00   0.00  0.00  0.00  0.39  0.61  0.00  0.00  0.00  0.00
  WSL2041                 1.00   0.00  0.00  0.00  1.00  0.00  0.00  0.00  0.29  0.00
  WSL2294                 1.00   0.00  0.00  0.00  1.00  0.00  0.00  0.00  0.00  0.00
  WSL2295                 1.00   0.00  0.00  0.00  1.00  0.00  0.00  0.00  0.00  0.00
  WSL2296                 1.00   0.00  0.00  0.00  0.21  0.79  0.00  0.00  0.71  0.00
  WSL2297                 1.00   0.00  0.00  0.00  1.00  0.00  0.00  0.00  0.00  0.00
  WSL2298                 1.00   0.00  0.00  0.00  0.05  0.95  0.00  0.00  0.00  0.00
  WSL2301                 1.00   0.00  0.00  0.00  1.00  0.00  0.00  0.00  0.09  0.00
  WSL2302                 1.00   0.00  0.00  0.00  1.00  0.00  0.00  0.00  0.01  0.00
  WSL2441                 1.00   0.00  0.00  0.00  1.00  0.00  0.00  0.00  0.00  0.00
  WSL2442                 1.00   0.00  0.00  0.00  1.00  0.00  0.00  0.00  0.20  0.00
  WSL2443                 1.00   0.00  0.00  0.00  1.00  0.00  0.00  0.00  0.43  0.00
  WSL2444                 1.00   0.00  0.00  0.00  0.16  0.84  0.00  0.00  0.25  0.00
  WSL2446                 1.00   0.00  0.00  0.00  0.65  0.35  0.00  0.00  0.00  0.00
  WSL2447                 1.00   0.00  0.00  0.00  1.00  0.00  0.00  0.00  0.00  0.00
  WSL2448                 1.00   0.00  0.00  0.00  1.00  0.00  0.00  0.00  0.00  0.00
  WSL2449                 1.00   0.00  0.00  0.00  1.00  0.00  0.00  0.00  0.03  0.00
  WSL2450                 1.00   0.00  0.00  0.00  1.00  0.00  0.00  0.00  0.42  0.00
  WSL2451                 1.00   0.00  0.00  0.00  1.00  0.00  0.00  0.00  0.00  0.00
  WSL2452                 1.00   0.00  0.00  0.00  1.00  0.00  0.00  0.00  0.64  0.00
  WSL2454                 1.00   0.00  0.00  0.00  1.00  0.00  0.00  0.00  0.01  0.00
  WSL2478                 1.00   0.00  0.00  0.00  1.00  0.00  0.00  0.00  0.00  0.00
  WSL2479                 1.00   0.00  0.00  0.00  1.00  0.00  0.00  0.00  0.50  0.00
  WSL2480                 1.00   0.00  0.00  0.00  1.00  0.00  0.00  0.00  0.00  0.00
  WSL2482                 1.00   0.00  0.00  0.00  1.00  0.00  0.00  0.00  0.56  0.00
  WSL2484                 1.00   0.00  0.00  0.00  0.99  0.01  0.00  0.00  0.92  0.00
  WSL2493                 1.00   0.00  0.00  0.00  1.00  0.00  0.00  0.00  0.05  0.00
  WSL2867                 1.00   0.00  0.00  0.00  0.00  1.00  0.00  0.00  0.19  0.00
  WSL2868                 1.00   0.00  0.00  0.00  0.97  0.03  0.00  0.00  0.83  0.00
  WSL348                  1.00   0.00  0.00  0.00  1.00  0.00  0.00  0.00  0.01  0.00
  WSL175                  1.00   0.00  0.00  0.00  1.00  0.00  0.00  0.00  0.00  0.00
  WSL1467                 1.00   0.00  0.00  0.00  1.00  0.00  0.00  0.00  0.06  0.00
  WSL1473                 1.00   0.00  0.00  0.00  1.00  0.00  0.00  0.00  0.06  0.00
  XRpipe                  1.00   0.00  0.00  0.00  1.00  0.00  0.00  0.00  0.01  0.00
  8                       1.00   1.00  0.00  0.00  0.00  0.00  0.00  0.00  0.00  0.00
  19                      1.00   1.00  0.00  0.00  0.00  0.00  0.00  0.00  0.00  0.00
  17                      1.00   1.00  0.00  0.00  0.00  0.00  0.00  0.00  0.00  0.00
  4                       1.00   1.00  0.00  0.00  0.00  0.00  0.00  0.00  0.00  0.00
  2                       1.00   0.00  0.00  0.00  0.00  1.00  0.00  0.00  0.19  0.00
  
  
  *************************
  Conduit Surcharge Summary
  *************************
  
  ----------------------------------------------------------------------------
                                                           Hours        Hours 
                         --------- Hours Full --------   Above Full   Capacity
  Conduit                Both Ends  Upstream  Dnstream   Normal Flow   Limited
  ----------------------------------------------------------------------------
  WSL49                       0.01      0.01      0.01      1.22         0.01
  WSL1472                     0.01      0.01      0.01      0.72         0.01
  WSL1475                     0.01      0.01      0.01      0.86         0.01
  WSL1476                     0.01      0.01      0.09      0.01         0.01
  WSL1515                     0.01      0.01      0.01      0.01         0.01
  WSL2013                     0.01      0.01      0.01      0.49         0.01
  WSL2014                     0.01      0.01      0.01      0.20         0.01
  WSL2294                     0.01      0.01      0.01      0.52         0.01
  WSL2295                     0.01      0.01      0.01      1.02         0.01
  WSL2298                     0.01      0.01      0.01      1.38         0.01
  WSL2441                     0.01      0.01      0.01      0.19         0.01
  WSL2447                     0.01      0.01      0.01      0.11         0.01
  WSL2451                     0.01      0.01      0.01      0.30         0.01
  WSL348                      3.87      3.87      3.88      0.01         0.01
  WSL175                      3.88      3.88      3.88      2.61         2.69
  XRpipe                      3.88      3.88      3.96      0.01         0.01
  
  
  ***************
  Pumping Summary
  ***************
  
  ---------------------------------------------------------------------------------------------------------
                                                  Min       Avg       Max     Total     Power    % Time Off
                        Percent   Number of      Flow      Flow      Flow    Volume     Usage    Pump Curve
  Pump                 Utilized   Start-Ups       MLD       MLD       MLD  10^6 ltr     Kw-hr    Low   High
  ---------------------------------------------------------------------------------------------------------
  XR-Pump-1               96.04           1      0.00      8.12      8.12     1.300      4.97    0.0    0.0
  XR-Pump-3               91.00          14      0.00      8.12      8.12     1.231      4.66    0.0    0.0
  XR-Pump-2               95.73           1      0.00      8.12      8.12     1.295      4.95    0.0    0.0
  XR-Pump-4               66.35           5      0.00      8.12      8.12     0.898      3.14    0.0    0.0
  CC-Pump-1                0.00           0      0.00      0.00      0.00     0.000      0.00    0.0    0.0
  CC-Pump-2                0.00           0      0.00      0.00      0.00     0.000      0.00    0.0    0.0
  JK-Pump-1                0.00           0      0.00      0.00      0.00     0.000      0.00    0.0    0.0
  JK-Pump-2                0.00           0      0.00      0.00      0.00     0.000      0.00    0.0    0.0
  
  
  ***************************
  Link Pollutant Load Summary
  ***************************
  
  ------------------------------------------------------------------------------------------
                                 COD         NH3-N            TN            TP            SS
  Link                            kg            kg            kg            kg            kg
  ------------------------------------------------------------------------------------------
  WSL49                     2038.687         0.000         0.000         0.000         0.000
  WSL1465                    808.719         0.000         0.000         0.000         0.000
  WSL1472                   1831.217         0.000         0.000         0.000         0.000
  WSL1475                   2055.915         0.000         0.000         0.000         0.000
  WSL1476                    208.501         0.000         0.000         0.000         0.000
  WSL1477                    206.640         0.000         0.000         0.000         0.000
  WSL1490                    797.118         0.000         0.000         0.000         0.000
  WSL1491                    800.673         0.000         0.000         0.000         0.000
  WSL1492                    806.216         0.000         0.000         0.000         0.000
  WSL1507                      1.388         0.000         0.000         0.000         0.000
  WSL1508                    131.867         0.000         0.000         0.000         0.000
  WSL1512                    131.861         0.000         0.000         0.000         0.000
  WSL1513                    132.842         0.000         0.000         0.000         0.000
  WSL1515                   1020.051         0.000         0.000         0.000         0.000
  WSL1516                    207.255         0.000         0.000         0.000         0.000
  WSL1518                    205.135         0.000         0.000         0.000         0.000
  WSL1519                    205.187         0.000         0.000         0.000         0.000
  WSL1521                    205.913         0.000         0.000         0.000         0.000
  WSL1543                    205.022         0.000         0.000         0.000         0.000
  WSL1961                    785.680         0.000         0.000         0.000         0.000
  WSL1964                    793.870         0.000         0.000         0.000         0.000
  WSL2010                    538.078         0.000         0.000         0.000         0.000
  WSL2011                    542.504         0.000         0.000         0.000         0.000
  WSL2012                    547.314         0.000         0.000         0.000         0.000
  WSL2013                    597.059         0.000         0.000         0.000         0.000
  WSL2014                    816.213         0.000         0.000         0.000         0.000
  WSL2015                    816.121         0.000         0.000         0.000         0.000
  WSL2016                    927.399         0.000         0.000         0.000         0.000
  WSL2017                    928.507         0.000         0.000         0.000         0.000
  WSL2018                   1014.399         0.000         0.000         0.000         0.000
  WSL2019                   1015.396         0.000         0.000         0.000         0.000
  WSL2028                    534.291         0.000         0.000         0.000         0.000
  WSL2029                    932.479         0.000         0.000         0.000         0.000
  WSL2038                     85.105         0.000         0.000         0.000         0.000
  WSL2039                     90.509         0.000         0.000         0.000         0.000
  WSL2041                     88.203         0.000         0.000         0.000         0.000
  WSL2294                    519.504         0.000         0.000         0.000         0.000
  WSL2295                    519.601         0.000         0.000         0.000         0.000
  WSL2296                    527.840         0.000         0.000         0.000         0.000
  WSL2297                    530.062         0.000         0.000         0.000         0.000
  WSL2298                    522.564         0.000         0.000         0.000         0.000
  WSL2301                    530.539         0.000         0.000         0.000         0.000
  WSL2302                    534.519         0.000         0.000         0.000         0.000
  WSL2441                    519.640         0.000         0.000         0.000         0.000
  WSL2442                    234.542         0.000         0.000         0.000         0.000
  WSL2443                    233.587         0.000         0.000         0.000         0.000
  WSL2444                    230.644         0.000         0.000         0.000         0.000
  WSL2446                    228.832         0.000         0.000         0.000         0.000
  WSL2447                    225.732         0.000         0.000         0.000         0.000
  WSL2448                    222.364         0.000         0.000         0.000         0.000
  WSL2449                    218.850         0.000         0.000         0.000         0.000
  WSL2450                    216.672         0.000         0.000         0.000         0.000
  WSL2451                    215.646         0.000         0.000         0.000         0.000
  WSL2452                    214.395         0.000         0.000         0.000         0.000
  WSL2454                    210.490         0.000         0.000         0.000         0.000
  WSL2478                    209.083         0.000         0.000         0.000         0.000
  WSL2479                    144.541         0.000         0.000         0.000         0.000
  WSL2480                    141.407         0.000         0.000         0.000         0.000
  WSL2482                    137.009         0.000         0.000         0.000         0.000
  WSL2484                     93.391         0.000         0.000         0.000         0.000
  WSL2493                    236.921         0.000         0.000         0.000         0.000
  WSL2867                   1019.873         0.000         0.000         0.000         0.000
  WSL2868                   1023.504         0.000         0.000         0.000         0.000
  WSL348                    1265.902         0.000         0.000         0.000         0.000
  WSL175                    1272.124         0.000         0.000         0.000         0.000
  WSL1467                   1829.552         0.000         0.000         0.000         0.000
  WSL1473                   1833.023         0.000         0.000         0.000         0.000
  XRpipe                    1284.826         0.000         0.000         0.000         0.000
  8                            0.000         0.000         0.000         0.000         0.000
  19                           0.000         0.000         0.000         0.000         0.000
  17                           0.000         0.000         0.000         0.000         0.000
  4                            0.000         0.000         0.000         0.000         0.000
  2                         2064.181         0.000         0.000         0.000         0.000
  XR-Pump-1                  213.149         0.000         0.000         0.000         0.000
  XR-Pump-3                  201.771         0.000         0.000         0.000         0.000
  XR-Pump-2                  212.443         0.000         0.000         0.000         0.000
  XR-Pump-4                  146.647         0.000         0.000         0.000         0.000
  CC-Pump-1                    0.000         0.000         0.000         0.000         0.000
  CC-Pump-2                    0.000         0.000         0.000         0.000         0.000
  JK-Pump-1                    0.000         0.000         0.000         0.000         0.000
  JK-Pump-2                    0.000         0.000         0.000         0.000         0.000
  

  Analysis begun on:  Mon Mar 18 14:38:39 2019
  Analysis ended on:  Mon Mar 18 14:38:39 2019
  Total elapsed time: < 1 sec