
  EPA STORM WATER MANAGEMENT MODEL - VERSION 5.1 (Build 5.2.0.dev1)
  --------------------------------------------------------------

  
  *********************************************************
  NOTE: The summary statistics displayed in this report are
  based on results found at every computational time step,  
  not just on results from each reporting time step.
  *********************************************************
  
  ****************
  Analysis Options
  ****************
  Flow Units ............... MLD
  Process Models:
    Rainfall/Runoff ........ YES
    RDII ................... NO
    Snowmelt ............... NO
    Groundwater ............ NO
    Flow Routing ........... YES
    Ponding Allowed ........ NO
    Water Quality .......... YES
  Infiltration Method ...... GREEN_AMPT
  Flow Routing Method ...... DYNWAVE
  Starting Date ............ 08/28/2015 08:00:00
  Ending Date .............. 08/28/2015 12:00:00
  Antecedent Dry Days ...... 4.0
  Report Time Step ......... 00:01:00
  Wet Time Step ............ 00:01:00
  Dry Time Step ............ 00:01:00
  Routing Time Step ........ 5.00 sec
  Variable Time Step ....... YES
  Maximum Trials ........... 8
  Number of Threads ........ 1
  Head Tolerance ........... 0.001500 m
  
  
  **************************        Volume         Depth
  Runoff Quantity Continuity     hectare-m            mm
  **************************     ---------       -------
  Total Precipitation ......         5.657        20.056
  Evaporation Loss .........         0.000         0.000
  Infiltration Loss ........         2.418         8.572
  Surface Runoff ...........         1.514         5.367
  Final Storage ............         1.729         6.129
  Continuity Error (%) .....        -0.055
  
  
  **************************           COD         NH3-N            TN            TP            SS
  Runoff Quality Continuity             kg            kg            kg            kg            kg
  **************************    ----------    ----------    ----------    ----------    ----------
  Initial Buildup ..........     13074.240         0.000         0.000         0.000         0.000
  Surface Buildup ..........       105.712         0.000         0.000         0.000         0.000
  Wet Deposition ...........         0.000         0.000         0.000         0.000         0.000
  Sweeping Removal .........         0.000         0.000         0.000         0.000         0.000
  Infiltration Loss ........       189.089         0.000         0.000         0.000         0.000
  BMP Removal ..............         0.000         0.000         0.000         0.000         0.000
  Surface Runoff ...........      2610.016         0.000         0.000         0.000         0.000
  Remaining Buildup ........     10378.296         0.000         0.000         0.000         0.000
  Continuity Error (%) .....         0.019         0.000         0.000         0.000         0.000
  
  
  **************************        Volume        Volume
  Flow Routing Continuity        hectare-m      10^6 ltr
  **************************     ---------     ---------
  Dry Weather Inflow .......         0.000         0.000
  Wet Weather Inflow .......         1.510        15.095
  Groundwater Inflow .......         0.000         0.000
  RDII Inflow ..............         0.000         0.000
  External Inflow ..........         0.561         5.611
  External Outflow .........         0.965         9.650
  Flooding Loss ............         1.000         9.996
  Evaporation Loss .........         0.000         0.000
  Exfiltration Loss ........         0.000         0.000
  Initial Stored Volume ....         0.000         0.000
  Final Stored Volume ......         0.106         1.062
  Continuity Error (%) .....        -0.010
  
  
  **************************           COD         NH3-N            TN            TP            SS
  Quality Routing Continuity            kg            kg            kg            kg            kg
  **************************    ----------    ----------    ----------    ----------    ----------
  Dry Weather Inflow .......         0.000         0.000         0.000         0.000         0.000
  Wet Weather Inflow .......      2604.967         0.000         0.000         0.000         0.000
  Groundwater Inflow .......         0.000         0.000         0.000         0.000         0.000
  RDII Inflow ..............         0.000         0.000         0.000         0.000         0.000
  External Inflow ..........       937.012         0.000         0.000         0.000         0.000
  External Outflow .........      1728.838         0.000         0.000         0.000         0.000
  Flooding Loss ............      1662.411         0.000         0.000         0.000         0.000
  Exfiltration Loss ........         0.000         0.000         0.000         0.000         0.000
  Mass Reacted .............         0.000         0.000         0.000         0.000         0.000
  Initial Stored Mass ......         0.000         0.000         0.000         0.000         0.000
  Final Stored Mass ........       148.912         0.000         0.000         0.000         0.000
  Continuity Error (%) .....         0.051         0.000         0.000         0.000         0.000
  
  
  *************************
  Highest Continuity Errors
  *************************
  Node WS02003099 (1.15%)
  
  
  ***************************
  Time-Step Critical Elements
  ***************************
  Link WSL1477 (78.44%)
  Link WSL2448 (3.11%)
  
  
  ********************************
  Highest Flow Instability Indexes
  ********************************
  Link WSL1515 (23)
  Link WSL2867 (20)
  Link WSL2868 (19)
  Link WSL1475 (19)
  Link WSL348 (16)
  
  
  *************************
  Routing Time Step Summary
  *************************
  Minimum Time Step           :     1.55 sec
  Average Time Step           :     2.97 sec
  Maximum Time Step           :     5.00 sec
  Percent in Steady State     :    -0.00
  Average Iterations per Step :     3.29
  Percent Not Converging      :    11.61
  
  
  ***************************
  Subcatchment Runoff Summary
  ***************************
  
  --------------------------------------------------------------------------------------------------------
                            Total      Total      Total      Total      Total       Total     Peak  Runoff
                           Precip      Runon       Evap      Infil     Runoff      Runoff   Runoff   Coeff
  Subcatchment                 mm         mm         mm         mm         mm    10^6 ltr      MLD
  --------------------------------------------------------------------------------------------------------
  1                         20.06      24.38       0.00      10.10      21.72        0.26     4.88   0.489
  2                         20.06       0.00       0.00       8.10       6.92        0.23     4.76   0.345
  3                         20.06       0.00       0.00       8.15       6.55        0.33     6.74   0.326
  4                         20.06       0.00       0.00       8.06       7.15        0.19     3.91   0.357
  5                         20.06      17.04       0.00       9.80      16.94        0.29     5.56   0.457
  6                         20.06       0.00       0.00       8.14       6.57        0.32     6.56   0.328
  7                         20.06       0.00       0.00       8.62       5.77        9.24   162.87   0.288
  8                         20.06       0.00       0.00       8.13       6.71        0.28     5.77   0.335
  9                         20.06       6.63       0.00       8.94       9.76        0.37     7.24   0.366
  17                        20.06       0.00       0.00       8.11       6.84        0.25     5.12   0.341
  18                        20.06       0.00       0.00       8.13       6.69        0.29     5.88   0.334
  28                        20.06      22.45       0.00      10.24      18.14        0.48     8.72   0.427
  29                        20.06       9.51       0.00       9.02      11.56        0.28     5.37   0.391
  30                        20.06      26.18       0.00      10.31      24.76        0.23     4.44   0.536
  31                        20.06       0.00       0.00       8.10       6.87        0.24     4.98   0.343
  33                        20.06       0.00       0.00       7.86       8.36        0.07     1.56   0.417
  34                        20.06      14.87       0.00       9.67      15.20        0.31     6.10   0.435
  35                        20.06       0.00       0.00       8.08       7.02        0.21     4.36   0.350
  36                        20.06      13.92       0.00       9.77      12.23        0.72    13.53   0.360
  39                        20.06       0.00       0.00       8.10       6.91        0.24     4.81   0.345
  40                        20.06       3.70       0.00       8.59       8.38        0.33     6.53   0.353
  41                        20.06       0.00       0.00       8.01       7.47        0.14     3.01   0.372
  42                        20.06       0.00       0.00       8.04       7.31        0.17     3.44   0.364
  43                        20.06       0.00       0.00       7.65       9.43        0.03     0.75   0.470
  44                        20.06     203.26       0.00      15.74     175.79        0.65    11.62   0.787
  45                        20.06       0.00       0.00       7.90       8.16        0.08     1.79   0.407
  46                        20.06      11.74       0.00       9.33      13.24        0.28     5.53   0.417
  47                        20.06       0.00       0.00       7.91       8.08        0.09     1.90   0.403
  48                        20.06       5.66       0.00       8.64      10.62        0.17     3.41   0.413
  55                        20.06       8.48       0.00       8.76      13.41        0.11     2.29   0.470
  56                        20.06      12.89       0.00       9.43      13.85        0.30     5.74   0.420
  57                        20.06       0.00       0.00       8.15       6.56        0.33     6.63   0.327
  59                        20.06       0.00       0.00       7.85       8.40        0.07     1.51   0.419
  60                        20.06      18.40       0.00       9.44      21.19        0.11     2.23   0.551
  61                        20.06       0.00       0.00       8.26       5.55        1.00    19.56   0.277
  62                        20.06       0.00       0.00       8.27       5.51        1.05    20.47   0.275
  64                        20.06       0.00       0.00       7.93       7.99        0.10     2.03   0.398
  
  
  ****************************
  Subcatchment Washoff Summary
  ****************************
  
  ------------------------------------------------------------------------------------------
                                 COD         NH3-N            TN            TP            SS
  Subcatchment                    kg            kg            kg            kg            kg
  ------------------------------------------------------------------------------------------
  1                           43.673         0.000         0.000         0.000         0.000
  2                            0.000         0.000         0.000         0.000         0.000
  3                            0.000         0.000         0.000         0.000         0.000
  4                           33.750         0.000         0.000         0.000         0.000
  5                           86.225         0.000         0.000         0.000         0.000
  6                           54.507         0.000         0.000         0.000         0.000
  7                         1478.111         0.000         0.000         0.000         0.000
  8                           48.409         0.000         0.000         0.000         0.000
  9                           91.475         0.000         0.000         0.000         0.000
  17                          43.284         0.000         0.000         0.000         0.000
  18                          49.293         0.000         0.000         0.000         0.000
  28                         176.859         0.000         0.000         0.000         0.000
  29                          85.589         0.000         0.000         0.000         0.000
  30                          64.737         0.000         0.000         0.000         0.000
  31                          42.184         0.000         0.000         0.000         0.000
  33                          14.287         0.000         0.000         0.000         0.000
  34                          94.762         0.000         0.000         0.000         0.000
  35                          37.320         0.000         0.000         0.000         0.000
  36                         225.924         0.000         0.000         0.000         0.000
  39                          40.890         0.000         0.000         0.000         0.000
  40                          71.881         0.000         0.000         0.000         0.000
  41                          26.463         0.000         0.000         0.000         0.000
  42                          29.969         0.000         0.000         0.000         0.000
  43                           7.199         0.000         0.000         0.000         0.000
  44                         205.482         0.000         0.000         0.000         0.000
  45                          16.269         0.000         0.000         0.000         0.000
  46                          87.199         0.000         0.000         0.000         0.000
  47                          17.231         0.000         0.000         0.000         0.000
  48                          42.885         0.000         0.000         0.000         0.000
  55                          31.741         0.000         0.000         0.000         0.000
  56                          92.685         0.000         0.000         0.000         0.000
  57                          55.021         0.000         0.000         0.000         0.000
  59                          13.906         0.000         0.000         0.000         0.000
  60                          32.531         0.000         0.000         0.000         0.000
  61                         149.192         0.000         0.000         0.000         0.000
  62                         155.571         0.000         0.000         0.000         0.000
  64                          18.295         0.000         0.000         0.000         0.000
  ------------------------------------------------------------------------------------------
  System                    3764.798         0.000         0.000         0.000         0.000
  
  
  ******************
  Node Depth Summary
  ******************
  
  ---------------------------------------------------------------------------------
                                 Average  Maximum  Maximum  Time of Max    Reported
                                   Depth    Depth      HGL   Occurrence   Max Depth
  Node                 Type       Meters   Meters   Meters  days hr:min      Meters
  ---------------------------------------------------------------------------------
  WS01000070           JUNCTION     0.00     0.00     0.00     0  00:00        0.00
  WS01000323           JUNCTION     0.00     0.00     0.00     0  00:00        0.00
  WS01000533           JUNCTION     0.00     0.00     6.86     0  00:00        0.00
  WS01005172           JUNCTION     0.00     0.00     0.00     0  00:00        0.00
  WS01005181           JUNCTION     0.00     0.00     0.00     0  00:00        0.00
  WS01009841           JUNCTION     0.00     0.00     0.00     0  00:00        0.00
  WS02000078           JUNCTION     0.00     0.00     0.00     0  00:00        0.00
  WS02000112           JUNCTION     0.00     0.00     0.00     0  00:00        0.00
  WS02000136           JUNCTION     0.00     0.00     0.00     0  00:00        0.00
  WS02001211           JUNCTION     0.42     0.47     5.31     0  03:02        0.47
  WS02001212           JUNCTION     0.36     0.43     5.23     0  03:01        0.43
  WS02001213           JUNCTION     0.45     0.54     5.24     0  03:05        0.54
  WS02003059           JUNCTION     0.42     0.56     5.21     0  02:59        0.56
  WS02003060           JUNCTION     0.48     0.65     5.20     0  03:02        0.64
  WS02003066           JUNCTION     0.19     0.33     5.63     0  03:04        0.33
  WS02003067           JUNCTION     0.32     0.55     5.87     0  03:04        0.52
  WS02003071           JUNCTION     0.53     0.72     5.12     0  02:58        0.71
  WS02003072           JUNCTION     0.44     0.67     5.04     0  02:57        0.62
  WS02003073           JUNCTION     0.51     0.84     5.08     0  02:56        0.80
  WS02003076           JUNCTION     0.47     0.75     4.98     0  02:57        0.67
  WS02003077           JUNCTION     0.08     0.13     5.14     0  03:03        0.13
  WS02003078           JUNCTION     0.05     0.08     6.98     0  03:03        0.08
  WS02003079           JUNCTION     0.17     0.30     7.21     0  03:03        0.29
  WS02003093           JUNCTION     0.04     0.11     7.45     0  03:01        0.11
  WS02003094           JUNCTION     0.14     0.23     7.45     0  03:01        0.22
  WS02003098           JUNCTION     0.09     0.16     7.33     0  03:02        0.16
  WS02003099           JUNCTION     0.18     0.30     7.34     0  03:02        0.30
  WS02003102           JUNCTION     0.16     0.28     7.31     0  03:01        0.28
  WS02003103           JUNCTION     0.18     0.31     7.28     0  03:02        0.31
  WS02003104           JUNCTION     0.18     0.30     7.26     0  03:02        0.30
  WS02003106           JUNCTION     0.18     0.31     7.24     0  03:03        0.31
  WS02004050           JUNCTION     0.33     0.45     4.67     0  02:58        0.44
  WS02004053           JUNCTION     0.00     0.00     0.00     0  00:00        0.00
  WS02004136           JUNCTION     0.17     0.18     6.91     0  01:20        0.18
  WS02004139           JUNCTION     0.35     0.38     5.34     0  03:03        0.38
  WS02004401           JUNCTION     0.29     0.49     6.49     0  03:05        0.49
  WS02004402           JUNCTION     0.30     0.50     6.46     0  03:05        0.50
  WS02004403           JUNCTION     0.29     0.51     6.44     0  03:04        0.51
  WS02004404           JUNCTION     0.38     0.59     6.44     0  03:05        0.59
  WS02004405           JUNCTION     0.38     0.60     6.44     0  03:05        0.60
  WS02004406           JUNCTION     0.37     0.58     6.41     0  03:05        0.58
  WS02004407           JUNCTION     0.35     0.55     6.35     0  03:04        0.55
  WS02004409           JUNCTION     0.34     0.54     6.31     0  03:05        0.54
  WS02004410           JUNCTION     0.33     0.52     6.24     0  03:04        0.52
  WS02004411           JUNCTION     0.31     0.48     6.16     0  03:05        0.48
  WS02004412           JUNCTION     0.27     0.43     6.07     0  03:05        0.43
  WS02004413           JUNCTION     0.28     0.46     5.93     0  03:05        0.46
  WS02004997           JUNCTION     5.84     6.69     8.30     0  02:00        6.68
  WS02005192           JUNCTION     0.13     0.23     8.10     0  03:01        0.23
  WS02005193           JUNCTION     0.12     0.19     8.01     0  03:01        0.19
  WS02005196           JUNCTION     0.13     0.22     8.07     0  03:01        0.22
  WS02006109           JUNCTION     0.32     0.50     7.12     0  03:03        0.50
  WS02006110           JUNCTION     0.30     0.46     7.06     0  03:03        0.46
  WS02006111           JUNCTION     0.16     0.26     6.84     0  03:04        0.26
  WS02006112           JUNCTION     0.31     0.49     6.61     0  03:04        0.49
  WS02006113           JUNCTION     0.26     0.40     6.99     0  03:03        0.40
  WS02006115           JUNCTION     0.27     0.45     6.55     0  03:04        0.45
  WS02006116           JUNCTION     0.30     0.48     6.52     0  03:05        0.48
  WS02006183           JUNCTION     0.00     0.00     0.00     0  00:00        0.00
  WS02006228           JUNCTION     0.32     0.51     7.16     0  03:04        0.51
  WS02006229           JUNCTION     0.29     0.47     7.16     0  03:04        0.47
  WS02006230           JUNCTION     0.25     0.43     7.18     0  03:04        0.43
  WS02006231           JUNCTION     0.17     0.29     7.19     0  03:04        0.29
  WS02006232           JUNCTION     0.17     0.27     7.30     0  03:04        0.27
  WS02006234           JUNCTION     0.16     0.25     7.41     0  03:05        0.25
  WS02006235           JUNCTION     0.20     0.30     7.47     0  03:04        0.30
  WS02006238           JUNCTION     0.20     0.30     7.48     0  03:04        0.30
  WS02006239           JUNCTION     0.21     0.32     7.53     0  03:04        0.32
  WS02006242           JUNCTION     0.22     0.34     7.64     0  03:03        0.34
  WS02006240           JUNCTION     0.17     0.28     7.57     0  03:04        0.28
  WS02006243           JUNCTION     0.16     0.26     7.68     0  03:03        0.26
  WS02006245           JUNCTION     0.17     0.27     7.76     0  03:02        0.27
  WS02006247           JUNCTION     0.19     0.30     7.81     0  03:02        0.30
  WS02006248           JUNCTION     0.13     0.23     7.82     0  03:02        0.23
  WS02006249           JUNCTION     0.16     0.25     7.85     0  03:02        0.25
  WS02006251           JUNCTION     0.14     0.24     7.91     0  03:01        0.24
  WS02006253           JUNCTION     0.09     0.15     7.95     0  03:02        0.15
  WS02618401           JUNCTION     0.00     0.00     0.00     0  00:00        0.00
  WS8802               JUNCTION     0.00     0.00     4.38     0  00:00        0.00
  WSA1649              JUNCTION     0.00     0.00     0.00     0  00:00        0.00
  WSF200               JUNCTION     0.18     0.31     5.41     0  03:02        0.31
  XR-Inflow            JUNCTION     5.70     6.55     8.36     0  01:59        6.55
  WS02004114           JUNCTION     5.82     6.65     8.25     0  02:00        6.65
  outfall-2            OUTFALL      0.00     0.00     7.00     0  00:00        0.00
  outfall-5            OUTFALL      0.00     0.00     7.67     0  00:00        0.00
  outfall-14           OUTFALL      0.00     0.00     7.66     0  00:00        0.00
  outfall-16           OUTFALL      0.00     0.00     8.39     0  00:00        0.00
  12                   OUTFALL      0.32     0.44     0.44     0  03:03        0.44
  XR-storage           STORAGE      6.89     7.72     8.22     0  01:39        7.72
  CC-storage           STORAGE      4.84     5.63     8.81     0  01:34        5.63
  JK-storage           STORAGE      3.99     4.80     7.80     0  01:40        4.80
  
  
  *******************
  Node Inflow Summary
  *******************
  
  -------------------------------------------------------------------------------------------------
                                  Maximum  Maximum                  Lateral       Total        Flow
                                  Lateral    Total  Time of Max      Inflow      Inflow     Balance
                                   Inflow   Inflow   Occurrence      Volume      Volume       Error
  Node                 Type           MLD      MLD  days hr:min    10^6 ltr    10^6 ltr     Percent
  -------------------------------------------------------------------------------------------------
  WS01000070           JUNCTION      0.00     0.00     0  00:00           0           0       0.000 ltr
  WS01000323           JUNCTION      0.00     0.00     0  00:00           0           0       0.000 ltr
  WS01000533           JUNCTION      0.00     0.00     0  00:00           0           0       0.000 ltr
  WS01005172           JUNCTION      0.00     0.00     0  00:00           0           0       0.000 ltr
  WS01005181           JUNCTION      0.00     0.00     0  00:00           0           0       0.000 ltr
  WS01009841           JUNCTION      0.00     0.00     0  00:00           0           0       0.000 ltr
  WS02000078           JUNCTION      0.00     0.00     0  00:00           0           0       0.000 ltr
  WS02000112           JUNCTION      0.00     0.00     0  00:00           0           0       0.000 ltr
  WS02000136           JUNCTION      0.00     0.00     0  00:00           0           0       0.000 ltr
  WS02001211           JUNCTION      0.25    34.61     0  01:24      0.0407        4.88       0.527
  WS02001212           JUNCTION      0.21    34.63     0  01:25      0.0346        4.89       0.294
  WS02001213           JUNCTION      0.30    34.42     0  03:24      0.0489        4.93       0.406
  WS02003059           JUNCTION      0.23    35.05     0  03:24      0.0378        4.95       0.499
  WS02003060           JUNCTION      0.16    99.35     0  03:02      0.0252        8.82       0.428
  WS02003066           JUNCTION      0.08    77.16     0  03:04      0.0122        3.86       0.211
  WS02003067           JUNCTION      0.26    60.42     0  03:03      0.0395        3.86       0.242
  WS02003071           JUNCTION      0.35    95.68     0  03:05      0.0538        8.84       0.444
  WS02003072           JUNCTION      0.24    96.53     0  03:03      0.0382        8.84       0.278
  WS02003073           JUNCTION      0.07   110.13     0  03:10     0.00978        9.51       0.257
  WS02003076           JUNCTION      0.72   123.24     0  02:58        0.12        9.61       0.175
  WS02003077           JUNCTION      0.04    12.34     0  03:03      0.0059       0.688       0.121
  WS02003078           JUNCTION      0.03    12.31     0  03:03     0.00419       0.682       0.018
  WS02003079           JUNCTION      0.04    12.30     0  03:03     0.00561        0.68       0.232
  WS02003093           JUNCTION      0.02     0.06     0  02:59     0.00306     0.00336       1.395
  WS02003094           JUNCTION      7.29     7.29     0  03:01       0.378       0.381       0.898
  WS02003098           JUNCTION      0.02     7.14     0  03:01     0.00293        0.38       0.570
  WS02003099           JUNCTION      0.07     7.07     0  03:02      0.0109       0.389       1.162
  WS02003102           JUNCTION      5.79    12.47     0  03:01       0.288       0.673       0.568
  WS02003103           JUNCTION      0.02    12.35     0  03:01     0.00239       0.672       0.412
  WS02003104           JUNCTION      0.02    12.31     0  03:02     0.00302       0.672       0.349
  WS02003106           JUNCTION      0.05    12.32     0  03:02     0.00727       0.677       0.429
  WS02004050           JUNCTION      0.72   134.97     0  02:57       0.119        9.71       0.594
  WS02004053           JUNCTION      0.00     0.00     0  00:00           0           0       0.000 ltr
  WS02004136           JUNCTION      0.44    32.92     0  01:15      0.0703         4.8       0.067
  WS02004139           JUNCTION      0.38    33.60     0  01:18      0.0619        4.86       0.368
  WS02004401           JUNCTION      0.05    37.36     0  03:05     0.00897        2.37       0.327
  WS02004402           JUNCTION      0.22    37.57     0  03:05      0.0335         2.4       0.300
  WS02004403           JUNCTION      0.23    37.83     0  03:05      0.0349        2.43       0.262
  WS02004404           JUNCTION      0.24    38.08     0  03:06      0.0365        2.46       0.247
  WS02004405           JUNCTION      3.98    41.01     0  03:05       0.201        2.65       0.346
  WS02004406           JUNCTION      8.84    48.85     0  03:05       0.497        3.14       0.452
  WS02004407           JUNCTION      0.11    48.97     0  03:05      0.0171        3.14       0.402
  WS02004409           JUNCTION      5.74    53.97     0  03:05       0.322        3.45       0.327
  WS02004410           JUNCTION      0.15    54.12     0  03:05      0.0226        3.46       0.329
  WS02004411           JUNCTION      0.25    54.41     0  03:05      0.0379        3.49       0.286
  WS02004412           JUNCTION      6.64    59.63     0  03:04       0.339        3.82       0.215
  WS02004413           JUNCTION      0.11    59.75     0  03:06      0.0172        3.83       0.209
  WS02004997           JUNCTION      0.42    63.57     0  03:00      0.0693        7.73       0.509
  WS02005192           JUNCTION      6.72     6.72     0  03:01       0.345       0.345       0.140
  WS02005193           JUNCTION      0.09     6.87     0  03:01      0.0146       0.377       0.264
  WS02005196           JUNCTION      0.12     6.81     0  03:01       0.019       0.364       0.291
  WS02006109           JUNCTION      0.08    30.91     0  03:05      0.0135        1.93       0.500
  WS02006110           JUNCTION      0.08    31.02     0  03:05      0.0132        1.93       0.466
  WS02006111           JUNCTION      0.24    36.97     0  03:03      0.0366        2.31       0.137
  WS02006112           JUNCTION      0.18    37.10     0  03:04      0.0273        2.34       0.365
  WS02006113           JUNCTION      6.88    36.77     0  03:03        0.36        2.28       0.300
  WS02006115           JUNCTION      0.08    37.13     0  03:04      0.0134        2.34       0.353
  WS02006116           JUNCTION      0.24    37.31     0  03:04       0.036        2.37       0.341
  WS02006183           JUNCTION      0.00     0.00     0  00:00           0           0       0.000 ltr
  WS02006228           JUNCTION     11.77    30.81     0  03:04       0.677        1.92       0.365
  WS02006229           JUNCTION      0.13    19.12     0  03:05        0.02        1.25       0.452
  WS02006230           JUNCTION      0.07    18.98     0  03:05      0.0116        1.24       0.413
  WS02006231           JUNCTION      0.13    18.91     0  03:04      0.0205        1.23       0.208
  WS02006232           JUNCTION      4.84    18.81     0  03:04       0.247        1.21       0.217
  WS02006234           JUNCTION      0.14    14.99     0  03:05      0.0216       0.967       0.243
  WS02006235           JUNCTION      0.14    14.87     0  03:05      0.0223       0.947       0.187
  WS02006238           JUNCTION      0.15    14.74     0  03:04      0.0235       0.927       0.242
  WS02006239           JUNCTION      0.11    14.61     0  03:04      0.0174       0.907       0.410
  WS02006242           JUNCTION      0.08    14.48     0  03:03      0.0129       0.887       0.522
  WS02006240           JUNCTION      0.06    14.52     0  03:03     0.00992       0.893       0.345
  WS02006243           JUNCTION      0.17    14.42     0  03:03      0.0269       0.877       0.326
  WS02006245           JUNCTION      0.07    14.29     0  03:02      0.0113       0.853       0.287
  WS02006247           JUNCTION      5.01    14.22     0  03:02       0.287       0.844       0.284
  WS02006248           JUNCTION      0.12     9.43     0  03:02      0.0192       0.558       0.198
  WS02006249           JUNCTION      0.19     9.33     0  03:01      0.0286       0.541       0.353
  WS02006251           JUNCTION      2.34     9.19     0  03:01       0.121       0.514       0.338
  WS02006253           JUNCTION      0.11     6.96     0  03:01      0.0173       0.394       0.156
  WS02618401           JUNCTION      0.00     0.00     0  00:00           0           0       0.000 ltr
  WS8802               JUNCTION      0.00     0.00     0  00:00           0           0       0.000 ltr
  WSA1649              JUNCTION      0.00     0.00     0  00:00           0           0       0.000 ltr
  WSF200               JUNCTION      0.14    71.50     0  03:04      0.0216        3.88      -0.001
  XR-Inflow            JUNCTION    180.43   180.43     0  03:01        12.6        12.6       0.195
  WS02004114           JUNCTION      0.57    64.10     0  02:52      0.0916        7.78       0.315
  outfall-2            OUTFALL       0.00     0.00     0  00:00           0           0       0.000 ltr
  outfall-5            OUTFALL       0.00     0.00     0  00:00           0           0       0.000 ltr
  outfall-14           OUTFALL       0.00     0.00     0  00:00           0           0       0.000 ltr
  outfall-16           OUTFALL       0.00     0.00     0  00:00           0           0       0.000 ltr
  12                   OUTFALL       0.00   111.23     0  03:03           0        9.65       0.000
  XR-storage           STORAGE       0.00    64.10     0  02:52           0        7.76       0.604
  CC-storage           STORAGE      21.02    21.02     0  03:01        1.28        1.28       0.000
  JK-storage           STORAGE      21.37    21.37     0  03:01        1.22        1.22       0.009
  
  
  **********************
  Node Surcharge Summary
  **********************
  
  Surcharging occurs when water rises above the top of the highest conduit.
  ---------------------------------------------------------------------
                                               Max. Height   Min. Depth
                                   Hours       Above Crown    Below Rim
  Node                 Type      Surcharged         Meters       Meters
  ---------------------------------------------------------------------
  WS01000070           JUNCTION        4.00          0.000        0.000
  WS01000323           JUNCTION        4.00          0.000        0.000
  WS01000533           JUNCTION        4.00          0.000        2.147
  WS01005172           JUNCTION        4.00          0.000        0.000
  WS01005181           JUNCTION        4.00          0.000        0.000
  WS01009841           JUNCTION        4.00          0.000        0.000
  WS02000078           JUNCTION        4.00          0.000        0.000
  WS02000112           JUNCTION        4.00          0.000        0.000
  WS02000136           JUNCTION        4.00          0.000        0.000
  WS02004053           JUNCTION        4.00          0.000        0.000
  WS02004997           JUNCTION        3.88          5.790        0.210
  WS02006183           JUNCTION        4.00          0.000        0.000
  WS02618401           JUNCTION        4.00          0.000        0.000
  WS8802               JUNCTION        4.00          0.000        4.942
  WSA1649              JUNCTION        4.00          0.000        0.000
  XR-Inflow            JUNCTION        3.87          5.650        0.000
  WS02004114           JUNCTION        3.88          5.752        0.763
  
  
  *********************
  Node Flooding Summary
  *********************
  
  Flooding refers to all water that overflows a node, whether it ponds or not.
  --------------------------------------------------------------------------
                                                             Total   Maximum
                                 Maximum   Time of Max       Flood    Ponded
                        Hours       Rate    Occurrence      Volume     Depth
  Node                 Flooded       MLD   days hr:min    10^6 ltr    Meters
  --------------------------------------------------------------------------
  XR-Inflow               1.99    117.25      0  03:01       4.870     0.000
  XR-storage              2.35     31.62      0  02:52       2.917     0.000
  CC-storage              2.43     21.01      0  03:01       1.125     0.000
  JK-storage              2.33     21.36      0  03:01       1.086     0.000
  
  
  **********************
  Storage Volume Summary
  **********************
  
  --------------------------------------------------------------------------------------------------
                         Average     Avg  Evap Exfil       Maximum     Max    Time of Max    Maximum
                          Volume    Pcnt  Pcnt  Pcnt        Volume    Pcnt     Occurrence    Outflow
  Storage Unit           1000 m3    Full  Loss  Loss       1000 m3    Full    days hr:min        MLD
  --------------------------------------------------------------------------------------------------
  XR-storage               0.056      89     0     0         0.063     100       0  01:39      32.48
  CC-storage               0.137      86     0     0         0.159     100       0  01:34       0.00
  JK-storage               0.113      83     0     0         0.136     100       0  01:40       0.00
  
  
  ***********************
  Outfall Loading Summary
  ***********************
  
  ---------------------------------------------------------------------------------------------------------------------------------
                         Flow       Avg       Max       Total         Total         Total         Total         Total         Total
                         Freq      Flow      Flow      Volume           COD         NH3-N            TN            TP            SS
  Outfall Node           Pcnt       MLD       MLD    10^6 ltr            kg            kg            kg            kg            kg
  ---------------------------------------------------------------------------------------------------------------------------------
  outfall-2              0.00      0.00      0.00       0.000         0.000         0.000         0.000         0.000         0.000
  outfall-5              0.00      0.00      0.00       0.000         0.000         0.000         0.000         0.000         0.000
  outfall-14             0.00      0.00      0.00       0.000         0.000         0.000         0.000         0.000         0.000
  outfall-16             0.00      0.00      0.00       0.000         0.000         0.000         0.000         0.000         0.000
  12                    99.98     66.51    111.23       9.650      1729.053         0.000         0.000         0.000         0.000
  ---------------------------------------------------------------------------------------------------------------------------------
  System                20.00     66.51    111.23       9.650      1729.053         0.000         0.000         0.000         0.000
  
  
  ********************
  Link Flow Summary
  ********************
  
  -----------------------------------------------------------------------------
                                 Maximum  Time of Max   Maximum    Max/    Max/
                                  |Flow|   Occurrence   |Veloc|    Full    Full
  Link                 Type          MLD  days hr:min     m/sec    Flow   Depth
  -----------------------------------------------------------------------------
  WSL49                CONDUIT    122.52     0  02:58      2.27    1.52    0.63
  WSL1465              CONDUIT     37.35     0  03:02      1.62    0.34    0.60
  WSL1472              CONDUIT     96.31     0  03:03      1.81    1.10    0.56
  WSL1475              CONDUIT    134.25     0  02:57      2.85    1.43    0.40
  WSL1476              CONDUIT     12.34     0  03:03      0.57    0.06    0.58
  WSL1477              CONDUIT     12.29     0  03:03      1.85    0.49    0.32
  WSL1490              CONDUIT     34.43     0  01:25      1.37    0.56    0.45
  WSL1491              CONDUIT     34.15     0  03:24      1.39    0.20    0.48
  WSL1492              CONDUIT     34.83     0  03:24      1.35    0.54    0.55
  WSL1507              CONDUIT      0.14     0  03:02      0.11    0.00    0.21
  WSL1508              CONDUIT      7.13     0  03:01      0.90    0.20    0.24
  WSL1512              CONDUIT      7.02     0  03:02      0.60    0.05    0.23
  WSL1513              CONDUIT      7.16     0  03:03      0.51    0.42    0.36
  WSL1515              CONDUIT     77.09     0  03:04      2.57    0.75    0.35
  WSL1516              CONDUIT     12.31     0  03:03      4.08    0.04    0.18
  WSL1518              CONDUIT     12.34     0  03:01      0.84    0.24    0.37
  WSL1519              CONDUIT     12.28     0  03:02      0.81    0.31    0.38
  WSL1521              CONDUIT     12.28     0  03:03      0.83    0.35    0.38
  WSL1543              CONDUIT     12.29     0  03:02      0.80    0.38    0.38
  WSL1961              CONDUIT     33.22     0  01:18      2.61    0.07    0.28
  WSL1964              CONDUIT     34.37     0  01:24      1.28    0.19    0.35
  WSL2010              CONDUIT     37.64     0  03:05      1.10    0.48    0.51
  WSL2011              CONDUIT     37.89     0  03:06      1.00    0.24    0.55
  WSL2012              CONDUIT     38.13     0  03:06      0.91    0.58    0.59
  WSL2013              CONDUIT     41.05     0  03:06      0.99    1.02    0.59
  WSL2014              CONDUIT     48.88     0  03:05      1.24    0.78    0.56
  WSL2015              CONDUIT     49.06     0  03:06      1.31    0.66    0.54
  WSL2016              CONDUIT     54.00     0  03:05      1.49    0.62    0.53
  WSL2017              CONDUIT     54.21     0  03:05      1.61    0.66    0.50
  WSL2018              CONDUIT     59.66     0  03:06      2.09    0.36    0.44
  WSL2019              CONDUIT     60.21     0  03:03      1.96    0.36    0.50
  WSL2028              CONDUIT     37.39     0  03:05      1.12    0.40    0.50
  WSL2029              CONDUIT     54.53     0  03:07      1.83    0.69    0.46
  WSL2038              CONDUIT      6.70     0  03:01      0.82    0.33    0.37
  WSL2039              CONDUIT      6.87     0  03:01      1.22    0.35    0.28
  WSL2041              CONDUIT      6.79     0  03:01      0.93    0.33    0.34
  WSL2294              CONDUIT     30.95     0  03:05      1.13    1.04    0.60
  WSL2295              CONDUIT     31.08     0  03:05      1.31    1.40    0.54
  WSL2296              CONDUIT     36.96     0  03:04      1.85    0.21    0.47
  WSL2297              CONDUIT     37.06     0  03:04      1.19    0.71    0.47
  WSL2298              CONDUIT     36.77     0  03:03      2.18    1.69    0.41
  WSL2301              CONDUIT     37.12     0  03:04      1.20    0.34    0.47
  WSL2302              CONDUIT     37.31     0  03:05      1.15    0.46    0.48
  WSL2441              CONDUIT     30.83     0  03:05      1.07    0.79    0.63
  WSL2442              CONDUIT     19.01     0  03:05      0.84    0.49    0.65
  WSL2443              CONDUIT     18.92     0  03:05      1.10    0.29    0.52
  WSL2444              CONDUIT     18.80     0  03:04      1.52    0.30    0.40
  WSL2446              CONDUIT     15.01     0  03:05      1.34    0.26    0.37
  WSL2447              CONDUIT     14.88     0  03:05      1.24    0.77    0.39
  WSL2448              CONDUIT     14.75     0  03:05      1.09    0.41    0.43
  WSL2449              CONDUIT     14.61     0  03:04      1.03    0.51    0.44
  WSL2450              CONDUIT     14.52     0  03:04      1.06    0.30    0.43
  WSL2451              CONDUIT     14.47     0  03:03      1.02    0.94    0.44
  WSL2452              CONDUIT     14.41     0  03:03      1.05    0.28    0.43
  WSL2454              CONDUIT     14.28     0  03:03      1.22    0.33    0.38
  WSL2478              CONDUIT     14.22     0  03:02      1.11    0.50    0.41
  WSL2479              CONDUIT      9.45     0  03:02      0.83    0.18    0.38
  WSL2480              CONDUIT      9.32     0  03:02      0.92    0.43    0.34
  WSL2482              CONDUIT      9.18     0  03:01      0.89    0.24    0.35
  WSL2484              CONDUIT      6.95     0  03:02      0.93    0.10    0.28
  WSL2493              CONDUIT     19.16     0  03:05      0.69    0.32    0.61
  WSL2867              CONDUIT     71.38     0  03:04      3.62    0.15    0.26
  WSL2868              CONDUIT     64.49     0  03:01      1.83    0.12    0.39
  WSL348               CONDUIT     63.16     0  03:00      1.88    0.58    1.00
  WSL175               CONDUIT     63.56     0  03:00      2.29    2.14    1.00
  WSL1467              CONDUIT     95.38     0  03:05      1.72    0.51    0.56
  WSL1473              CONDUIT     99.46     0  03:10      1.89    0.41    0.60
  XRpipe               CONDUIT     64.10     0  02:52      2.54    0.16    1.00
  8                    CONDUIT      0.00     0  00:00      0.00    0.00    0.00
  19                   CONDUIT      0.00     0  00:00      0.00    0.00    0.00
  17                   CONDUIT      0.00     0  00:00      0.00    0.00    0.00
  4                    CONDUIT      0.00     0  00:00      0.00    0.00    0.00
  2                    CONDUIT    111.23     0  03:03      3.85    0.40    0.44
  XR-Pump-1            PUMP         8.12     0  00:09              1.00
  XR-Pump-3            PUMP         8.12     0  00:11              1.00
  XR-Pump-2            PUMP         8.12     0  00:10              1.00
  XR-Pump-4            PUMP         8.12     0  01:15              1.00
  CC-Pump-1            PUMP         0.00     0  00:00              0.00
  CC-Pump-2            PUMP         0.00     0  00:00              0.00
  JK-Pump-1            PUMP         0.00     0  00:00              0.00
  JK-Pump-2            PUMP         0.00     0  00:00              0.00
  
  
  ***************************
  Flow Classification Summary
  ***************************
  
  -------------------------------------------------------------------------------------
                      Adjusted    ---------- Fraction of Time in Flow Class ---------- 
                       /Actual         Up    Down  Sub   Sup   Up    Down  Norm  Inlet 
  Conduit               Length    Dry  Dry   Dry   Crit  Crit  Crit  Crit  Ltd   Ctrl  
  -------------------------------------------------------------------------------------
  WSL49                   1.00   0.00  0.00  0.00  0.99  0.01  0.00  0.00  0.00  0.00
  WSL1465                 1.00   0.00  0.00  0.00  1.00  0.00  0.00  0.00  0.10  0.00
  WSL1472                 1.00   0.00  0.00  0.00  1.00  0.00  0.00  0.00  0.00  0.00
  WSL1475                 1.00   0.00  0.00  0.00  0.13  0.87  0.00  0.00  0.00  0.00
  WSL1476                 1.00   0.00  0.00  0.00  1.00  0.00  0.00  0.00  1.00  0.00
  WSL1477                 1.00   0.00  0.00  0.00  0.01  0.99  0.00  0.00  0.63  0.00
  WSL1490                 1.00   0.00  0.00  0.00  1.00  0.00  0.00  0.00  0.00  0.00
  WSL1491                 1.00   0.00  0.00  0.00  1.00  0.00  0.00  0.00  0.05  0.00
  WSL1492                 1.00   0.00  0.00  0.00  1.00  0.00  0.00  0.00  0.00  0.00
  WSL1507                 1.00   0.00  0.00  0.00  1.00  0.00  0.00  0.00  0.44  0.00
  WSL1508                 1.00   0.00  0.00  0.00  1.00  0.00  0.00  0.00  0.00  0.00
  WSL1512                 1.00   0.00  0.00  0.00  1.00  0.00  0.00  0.00  0.95  0.00
  WSL1513                 1.00   0.00  0.00  0.00  1.00  0.00  0.00  0.00  0.00  0.00
  WSL1515                 1.00   0.00  0.00  0.00  0.11  0.89  0.00  0.00  0.05  0.00
  WSL1516                 1.00   0.00  0.00  0.00  0.00  1.00  0.00  0.00  1.00  0.00
  WSL1518                 1.00   0.00  0.00  0.00  1.00  0.00  0.00  0.00  0.39  0.00
  WSL1519                 1.00   0.00  0.00  0.00  1.00  0.00  0.00  0.00  0.31  0.00
  WSL1521                 1.00   0.00  0.00  0.00  1.00  0.00  0.00  0.00  0.02  0.00
  WSL1543                 1.00   0.00  0.00  0.00  1.00  0.00  0.00  0.00  0.02  0.00
  WSL1961                 1.00   0.00  0.00  0.00  0.02  0.98  0.00  0.00  0.98  0.00
  WSL1964                 1.00   0.00  0.00  0.00  1.00  0.00  0.00  0.00  0.05  0.00
  WSL2010                 1.00   0.00  0.00  0.00  1.00  0.00  0.00  0.00  0.01  0.00
  WSL2011                 1.00   0.00  0.00  0.00  1.00  0.00  0.00  0.00  0.27  0.00
  WSL2012                 1.00   0.00  0.00  0.00  1.00  0.00  0.00  0.00  0.00  0.00
  WSL2013                 1.00   0.00  0.00  0.00  1.00  0.00  0.00  0.00  0.00  0.00
  WSL2014                 1.00   0.00  0.00  0.00  1.00  0.00  0.00  0.00  0.00  0.00
  WSL2015                 1.00   0.00  0.00  0.00  1.00  0.00  0.00  0.00  0.02  0.00
  WSL2016                 1.00   0.00  0.00  0.00  1.00  0.00  0.00  0.00  0.01  0.00
  WSL2017                 1.00   0.00  0.00  0.00  1.00  0.00  0.00  0.00  0.04  0.00
  WSL2018                 1.00   0.00  0.00  0.00  0.01  0.99  0.00  0.00  0.07  0.00
  WSL2019                 1.00   0.00  0.00  0.00  0.50  0.50  0.00  0.00  0.11  0.00
  WSL2028                 1.00   0.00  0.00  0.00  1.00  0.00  0.00  0.00  0.06  0.00
  WSL2029                 1.00   0.00  0.00  0.00  0.74  0.26  0.00  0.00  0.00  0.00
  WSL2038                 1.00   0.00  0.00  0.00  1.00  0.00  0.00  0.00  0.02  0.00
  WSL2039                 1.00   0.00  0.00  0.00  0.47  0.53  0.00  0.00  0.00  0.00
  WSL2041                 1.00   0.00  0.00  0.00  1.00  0.00  0.00  0.00  0.28  0.00
  WSL2294                 1.00   0.00  0.00  0.00  1.00  0.00  0.00  0.00  0.00  0.00
  WSL2295                 1.00   0.00  0.00  0.00  1.00  0.00  0.00  0.00  0.00  0.00
  WSL2296                 1.00   0.00  0.00  0.00  0.20  0.80  0.00  0.00  0.81  0.00
  WSL2297                 1.00   0.00  0.00  0.00  1.00  0.00  0.00  0.00  0.00  0.00
  WSL2298                 1.00   0.00  0.00  0.00  0.05  0.95  0.00  0.00  0.00  0.00
  WSL2301                 1.00   0.00  0.00  0.00  1.00  0.00  0.00  0.00  0.09  0.00
  WSL2302                 1.00   0.00  0.00  0.00  1.00  0.00  0.00  0.00  0.01  0.00
  WSL2441                 1.00   0.00  0.00  0.00  1.00  0.00  0.00  0.00  0.00  0.00
  WSL2442                 1.00   0.00  0.00  0.00  1.00  0.00  0.00  0.00  0.20  0.00
  WSL2443                 1.00   0.00  0.00  0.00  1.00  0.00  0.00  0.00  0.50  0.00
  WSL2444                 1.00   0.00  0.00  0.00  0.02  0.98  0.00  0.00  0.33  0.00
  WSL2446                 1.00   0.00  0.00  0.00  0.58  0.42  0.00  0.00  0.00  0.00
  WSL2447                 1.00   0.00  0.00  0.00  1.00  0.00  0.00  0.00  0.00  0.00
  WSL2448                 1.00   0.00  0.00  0.00  1.00  0.00  0.00  0.00  0.01  0.00
  WSL2449                 1.00   0.00  0.00  0.00  1.00  0.00  0.00  0.00  0.03  0.00
  WSL2450                 1.00   0.00  0.00  0.00  1.00  0.00  0.00  0.00  0.41  0.00
  WSL2451                 1.00   0.00  0.00  0.00  1.00  0.00  0.00  0.00  0.00  0.00
  WSL2452                 1.00   0.00  0.00  0.00  1.00  0.00  0.00  0.00  0.74  0.00
  WSL2454                 1.00   0.00  0.00  0.00  1.00  0.00  0.00  0.00  0.01  0.00
  WSL2478                 1.00   0.00  0.00  0.00  1.00  0.00  0.00  0.00  0.00  0.00
  WSL2479                 1.00   0.00  0.00  0.00  1.00  0.00  0.00  0.00  0.52  0.00
  WSL2480                 1.00   0.00  0.00  0.00  1.00  0.00  0.00  0.00  0.00  0.00
  WSL2482                 1.00   0.00  0.00  0.00  1.00  0.00  0.00  0.00  0.63  0.00
  WSL2484                 1.00   0.00  0.00  0.00  0.99  0.01  0.00  0.00  0.99  0.00
  WSL2493                 1.00   0.00  0.00  0.00  1.00  0.00  0.00  0.00  0.05  0.00
  WSL2867                 1.00   0.00  0.00  0.00  0.00  1.00  0.00  0.00  0.20  0.00
  WSL2868                 1.00   0.00  0.00  0.00  0.98  0.02  0.00  0.00  0.92  0.00
  WSL348                  1.00   0.00  0.00  0.00  1.00  0.00  0.00  0.00  0.01  0.00
  WSL175                  1.00   0.00  0.00  0.00  1.00  0.00  0.00  0.00  0.00  0.00
  WSL1467                 1.00   0.00  0.00  0.00  1.00  0.00  0.00  0.00  0.06  0.00
  WSL1473                 1.00   0.00  0.00  0.00  1.00  0.00  0.00  0.00  0.06  0.00
  XRpipe                  1.00   0.00  0.00  0.00  1.00  0.00  0.00  0.00  0.01  0.00
  8                       1.00   1.00  0.00  0.00  0.00  0.00  0.00  0.00  0.00  0.00
  19                      1.00   1.00  0.00  0.00  0.00  0.00  0.00  0.00  0.00  0.00
  17                      1.00   1.00  0.00  0.00  0.00  0.00  0.00  0.00  0.00  0.00
  4                       1.00   1.00  0.00  0.00  0.00  0.00  0.00  0.00  0.00  0.00
  2                       1.00   0.00  0.00  0.00  0.00  1.00  0.00  0.00  0.21  0.00
  
  
  *************************
  Conduit Surcharge Summary
  *************************
  
  ----------------------------------------------------------------------------
                                                           Hours        Hours 
                         --------- Hours Full --------   Above Full   Capacity
  Conduit                Both Ends  Upstream  Dnstream   Normal Flow   Limited
  ----------------------------------------------------------------------------
  WSL49                       0.01      0.01      0.01      0.87         0.01
  WSL1472                     0.01      0.01      0.01      0.31         0.01
  WSL1475                     0.01      0.01      0.01      0.45         0.01
  WSL1476                     0.01      0.01      0.01      0.01         0.01
  WSL2013                     0.01      0.01      0.01      0.10         0.01
  WSL2294                     0.01      0.01      0.01      0.14         0.01
  WSL2295                     0.01      0.01      0.01      0.61         0.01
  WSL2298                     0.01      0.01      0.01      0.96         0.01
  WSL348                      3.87      3.87      3.88      0.01         0.01
  WSL175                      3.88      3.88      3.88      2.62         2.72
  XRpipe                      3.88      3.88      3.96      0.01         0.01
  
  
  ***************
  Pumping Summary
  ***************
  
  ---------------------------------------------------------------------------------------------------------
                                                  Min       Avg       Max     Total     Power    % Time Off
                        Percent   Number of      Flow      Flow      Flow    Volume     Usage    Pump Curve
  Pump                 Utilized   Start-Ups       MLD       MLD       MLD  10^6 ltr     Kw-hr    Low   High
  ---------------------------------------------------------------------------------------------------------
  XR-Pump-1               96.04           1      0.00      8.12      8.12     1.300      4.98    0.0    0.0
  XR-Pump-3               91.00          14      0.00      8.12      8.12     1.231      4.67    0.0    0.0
  XR-Pump-2               95.73           1      0.00      8.12      8.12     1.295      4.96    0.0    0.0
  XR-Pump-4               66.99           4      0.00      8.12      8.12     0.907      3.19    0.0    0.0
  CC-Pump-1                0.00           0      0.00      0.00      0.00     0.000      0.00    0.0    0.0
  CC-Pump-2                0.00           0      0.00      0.00      0.00     0.000      0.00    0.0    0.0
  JK-Pump-1                0.00           0      0.00      0.00      0.00     0.000      0.00    0.0    0.0
  JK-Pump-2                0.00           0      0.00      0.00      0.00     0.000      0.00    0.0    0.0
  
  
  ***************************
  Link Pollutant Load Summary
  ***************************
  
  ------------------------------------------------------------------------------------------
                                 COD         NH3-N            TN            TP            SS
  Link                            kg            kg            kg            kg            kg
  ------------------------------------------------------------------------------------------
  WSL49                     1701.518         0.000         0.000         0.000         0.000
  WSL1465                    758.070         0.000         0.000         0.000         0.000
  WSL1472                   1554.099         0.000         0.000         0.000         0.000
  WSL1475                   1718.936         0.000         0.000         0.000         0.000
  WSL1476                    146.860         0.000         0.000         0.000         0.000
  WSL1477                    145.068         0.000         0.000         0.000         0.000
  WSL1490                    745.443         0.000         0.000         0.000         0.000
  WSL1491                    749.200         0.000         0.000         0.000         0.000
  WSL1492                    755.071         0.000         0.000         0.000         0.000
  WSL1507                      0.762         0.000         0.000         0.000         0.000
  WSL1508                     93.142         0.000         0.000         0.000         0.000
  WSL1512                     93.333         0.000         0.000         0.000         0.000
  WSL1513                     94.476         0.000         0.000         0.000         0.000
  WSL1515                    791.213         0.000         0.000         0.000         0.000
  WSL1516                    145.725         0.000         0.000         0.000         0.000
  WSL1518                    143.122         0.000         0.000         0.000         0.000
  WSL1519                    143.419         0.000         0.000         0.000         0.000
  WSL1521                    144.278         0.000         0.000         0.000         0.000
  WSL1543                    143.193         0.000         0.000         0.000         0.000
  WSL1961                    733.620         0.000         0.000         0.000         0.000
  WSL1964                    741.962         0.000         0.000         0.000         0.000
  WSL2010                    413.231         0.000         0.000         0.000         0.000
  WSL2011                    417.945         0.000         0.000         0.000         0.000
  WSL2012                    422.973         0.000         0.000         0.000         0.000
  WSL2013                    456.628         0.000         0.000         0.000         0.000
  WSL2014                    633.758         0.000         0.000         0.000         0.000
  WSL2015                    634.202         0.000         0.000         0.000         0.000
  WSL2016                    723.776         0.000         0.000         0.000         0.000
  WSL2017                    725.332         0.000         0.000         0.000         0.000
  WSL2018                    785.030         0.000         0.000         0.000         0.000
  WSL2019                    786.364         0.000         0.000         0.000         0.000
  WSL2028                    409.058         0.000         0.000         0.000         0.000
  WSL2029                    729.687         0.000         0.000         0.000         0.000
  WSL2038                     57.923         0.000         0.000         0.000         0.000
  WSL2039                     63.371         0.000         0.000         0.000         0.000
  WSL2041                     61.036         0.000         0.000         0.000         0.000
  WSL2294                    392.017         0.000         0.000         0.000         0.000
  WSL2295                    392.457         0.000         0.000         0.000         0.000
  WSL2296                    401.062         0.000         0.000         0.000         0.000
  WSL2297                    403.754         0.000         0.000         0.000         0.000
  WSL2298                    395.660         0.000         0.000         0.000         0.000
  WSL2301                    404.559         0.000         0.000         0.000         0.000
  WSL2302                    408.950         0.000         0.000         0.000         0.000
  WSL2441                    391.752         0.000         0.000         0.000         0.000
  WSL2442                    181.058         0.000         0.000         0.000         0.000
  WSL2443                    179.896         0.000         0.000         0.000         0.000
  WSL2444                    176.890         0.000         0.000         0.000         0.000
  WSL2446                    175.003         0.000         0.000         0.000         0.000
  WSL2447                    171.815         0.000         0.000         0.000         0.000
  WSL2448                    168.401         0.000         0.000         0.000         0.000
  WSL2449                    164.801         0.000         0.000         0.000         0.000
  WSL2450                    162.495         0.000         0.000         0.000         0.000
  WSL2451                    161.333         0.000         0.000         0.000         0.000
  WSL2452                    159.919         0.000         0.000         0.000         0.000
  WSL2454                    155.917         0.000         0.000         0.000         0.000
  WSL2478                    154.433         0.000         0.000         0.000         0.000
  WSL2479                    107.132         0.000         0.000         0.000         0.000
  WSL2480                    103.993         0.000         0.000         0.000         0.000
  WSL2482                     99.478         0.000         0.000         0.000         0.000
  WSL2484                     66.233         0.000         0.000         0.000         0.000
  WSL2493                    183.626         0.000         0.000         0.000         0.000
  WSL2867                    791.633         0.000         0.000         0.000         0.000
  WSL2868                    795.055         0.000         0.000         0.000         0.000
  WSL348                    1165.505         0.000         0.000         0.000         0.000
  WSL175                    1171.988         0.000         0.000         0.000         0.000
  WSL1467                   1551.355         0.000         0.000         0.000         0.000
  WSL1473                   1556.584         0.000         0.000         0.000         0.000
  XRpipe                    1184.845         0.000         0.000         0.000         0.000
  8                            0.000         0.000         0.000         0.000         0.000
  19                           0.000         0.000         0.000         0.000         0.000
  17                           0.000         0.000         0.000         0.000         0.000
  4                            0.000         0.000         0.000         0.000         0.000
  2                         1729.053         0.000         0.000         0.000         0.000
  XR-Pump-1                  199.798         0.000         0.000         0.000         0.000
  XR-Pump-3                  188.420         0.000         0.000         0.000         0.000
  XR-Pump-2                  199.092         0.000         0.000         0.000         0.000
  XR-Pump-4                  134.608         0.000         0.000         0.000         0.000
  CC-Pump-1                    0.000         0.000         0.000         0.000         0.000
  CC-Pump-2                    0.000         0.000         0.000         0.000         0.000
  JK-Pump-1                    0.000         0.000         0.000         0.000         0.000
  JK-Pump-2                    0.000         0.000         0.000         0.000         0.000
  

  Analysis begun on:  Mon Mar 18 14:38:54 2019
  Analysis ended on:  Mon Mar 18 14:38:55 2019
  Total elapsed time: 00:00:01