
  EPA STORM WATER MANAGEMENT MODEL - VERSION 5.1 (Build 5.2.0.dev1)
  --------------------------------------------------------------

  
  *********************************************************
  NOTE: The summary statistics displayed in this report are
  based on results found at every computational time step,  
  not just on results from each reporting time step.
  *********************************************************
  
  ****************
  Analysis Options
  ****************
  Flow Units ............... MLD
  Process Models:
    Rainfall/Runoff ........ YES
    RDII ................... NO
    Snowmelt ............... NO
    Groundwater ............ NO
    Flow Routing ........... YES
    Ponding Allowed ........ NO
    Water Quality .......... YES
  Infiltration Method ...... GREEN_AMPT
  Flow Routing Method ...... DYNWAVE
  Starting Date ............ 08/28/2015 08:00:00
  Ending Date .............. 08/28/2015 12:00:00
  Antecedent Dry Days ...... 4.0
  Report Time Step ......... 00:01:00
  Wet Time Step ............ 00:01:00
  Dry Time Step ............ 00:01:00
  Routing Time Step ........ 5.00 sec
  Variable Time Step ....... YES
  Maximum Trials ........... 8
  Number of Threads ........ 1
  Head Tolerance ........... 0.001500 m
  
  
  **************************        Volume         Depth
  Runoff Quantity Continuity     hectare-m            mm
  **************************     ---------       -------
  Total Precipitation ......         3.579        12.688
  Evaporation Loss .........         0.000         0.000
  Infiltration Loss ........         1.724         6.113
  Surface Runoff ...........         0.800         2.838
  Final Storage ............         1.056         3.743
  Continuity Error (%) .....        -0.051
  
  
  **************************           COD         NH3-N            TN            TP            SS
  Runoff Quality Continuity             kg            kg            kg            kg            kg
  **************************    ----------    ----------    ----------    ----------    ----------
  Initial Buildup ..........     13074.240         0.000         0.000         0.000         0.000
  Surface Buildup ..........       109.367         0.000         0.000         0.000         0.000
  Wet Deposition ...........         0.000         0.000         0.000         0.000         0.000
  Sweeping Removal .........         0.000         0.000         0.000         0.000         0.000
  Infiltration Loss ........        88.892         0.000         0.000         0.000         0.000
  BMP Removal ..............         0.000         0.000         0.000         0.000         0.000
  Surface Runoff ...........       842.634         0.000         0.000         0.000         0.000
  Remaining Buildup ........     12251.242         0.000         0.000         0.000         0.000
  Continuity Error (%) .....         0.006         0.000         0.000         0.000         0.000
  
  
  **************************        Volume        Volume
  Flow Routing Continuity        hectare-m      10^6 ltr
  **************************     ---------     ---------
  Dry Weather Inflow .......         0.000         0.000
  Wet Weather Inflow .......         0.798         7.982
  Groundwater Inflow .......         0.000         0.000
  RDII Inflow ..............         0.000         0.000
  External Inflow ..........         0.561         5.611
  External Outflow .........         0.779         7.792
  Flooding Loss ............         0.488         4.877
  Evaporation Loss .........         0.000         0.000
  Exfiltration Loss ........         0.000         0.000
  Initial Stored Volume ....         0.000         0.000
  Final Stored Volume ......         0.092         0.921
  Continuity Error (%) .....         0.020
  
  
  **************************           COD         NH3-N            TN            TP            SS
  Quality Routing Continuity            kg            kg            kg            kg            kg
  **************************    ----------    ----------    ----------    ----------    ----------
  Dry Weather Inflow .......         0.000         0.000         0.000         0.000         0.000
  Wet Weather Inflow .......       840.751         0.000         0.000         0.000         0.000
  Groundwater Inflow .......         0.000         0.000         0.000         0.000         0.000
  RDII Inflow ..............         0.000         0.000         0.000         0.000         0.000
  External Inflow ..........       937.037         0.000         0.000         0.000         0.000
  External Outflow .........      1100.126         0.000         0.000         0.000         0.000
  Flooding Loss ............       574.790         0.000         0.000         0.000         0.000
  Exfiltration Loss ........         0.000         0.000         0.000         0.000         0.000
  Mass Reacted .............         0.000         0.000         0.000         0.000         0.000
  Initial Stored Mass ......         0.000         0.000         0.000         0.000         0.000
  Final Stored Mass ........       101.988         0.000         0.000         0.000         0.000
  Continuity Error (%) .....         0.050         0.000         0.000         0.000         0.000
  
  
  *************************
  Highest Continuity Errors
  *************************
  Node WS02003099 (1.25%)
  Node WS02003094 (1.01%)
  
  
  ***************************
  Time-Step Critical Elements
  ***************************
  Link WSL1477 (73.05%)
  Link WSL2448 (5.24%)
  
  
  ********************************
  Highest Flow Instability Indexes
  ********************************
  Link WSL1477 (29)
  Link WSL1516 (29)
  Link WSL348 (22)
  Link XRpipe (21)
  Link WSL175 (19)
  
  
  *************************
  Routing Time Step Summary
  *************************
  Minimum Time Step           :     0.62 sec
  Average Time Step           :     3.39 sec
  Maximum Time Step           :     5.00 sec
  Percent in Steady State     :    -0.00
  Average Iterations per Step :     3.50
  Percent Not Converging      :    14.51
  
  
  ***************************
  Subcatchment Runoff Summary
  ***************************
  
  --------------------------------------------------------------------------------------------------------
                            Total      Total      Total      Total      Total       Total     Peak  Runoff
                           Precip      Runon       Evap      Infil     Runoff      Runoff   Runoff   Coeff
  Subcatchment                 mm         mm         mm         mm         mm    10^6 ltr      MLD
  --------------------------------------------------------------------------------------------------------
  1                         12.69      11.51       0.00       8.11       9.56        0.12     2.07   0.395
  2                         12.69       0.00       0.00       6.70       3.64        0.12     2.29   0.287
  3                         12.69       0.00       0.00       6.72       3.49        0.18     3.28   0.275
  4                         12.69       0.00       0.00       6.69       3.73        0.10     1.86   0.294
  5                         12.69       9.04       0.00       7.98       8.09        0.14     2.50   0.372
  6                         12.69       0.00       0.00       6.72       3.50        0.17     3.19   0.276
  7                         12.69       0.00       0.00       5.46       3.11        4.98    82.45   0.245
  8                         12.69       0.00       0.00       6.71       3.56        0.15     2.79   0.280
  9                         12.69       3.50       0.00       7.29       4.91        0.19     3.39   0.303
  17                        12.69       0.00       0.00       6.71       3.61        0.13     2.46   0.285
  18                        12.69       0.00       0.00       6.72       3.55        0.15     2.85   0.280
  28                        12.69      10.68       0.00       8.15       8.14        0.21     3.78   0.348
  29                        12.69       4.47       0.00       7.31       5.46        0.13     2.40   0.318
  30                        12.69      13.81       0.00       8.43      11.63        0.11     1.98   0.439
  31                        12.69       0.00       0.00       6.71       3.62        0.13     2.39   0.286
  33                        12.69       0.00       0.00       6.61       4.21        0.04     0.72   0.332
  34                        12.69       7.75       0.00       7.86       7.25        0.15     2.74   0.355
  35                        12.69       0.00       0.00       6.70       3.68        0.11     2.08   0.290
  36                        12.69       6.99       0.00       7.82       5.92        0.35     6.22   0.301
  39                        12.69       0.00       0.00       6.70       3.64        0.12     2.31   0.287
  40                        12.69       1.91       0.00       7.04       4.29        0.17     3.08   0.294
  41                        12.69       0.00       0.00       6.67       3.86        0.07     1.42   0.304
  42                        12.69       0.00       0.00       6.68       3.79        0.09     1.63   0.299
  43                        12.69       0.00       0.00       6.52       4.66        0.02     0.34   0.367
  44                        12.69      98.54       0.00      12.67      79.56        0.29     5.11   0.715
  45                        12.69       0.00       0.00       6.62       4.13        0.04     0.83   0.326
  46                        12.69       5.81       0.00       7.57       6.27        0.13     2.46   0.339
  47                        12.69       0.00       0.00       6.63       4.10        0.05     0.88   0.323
  48                        12.69       2.88       0.00       7.12       5.20        0.08     1.55   0.334
  55                        12.69       4.27       0.00       7.25       6.36        0.05     1.01   0.375
  56                        12.69       6.42       0.00       7.64       6.53        0.14     2.56   0.342
  57                        12.69       0.00       0.00       6.72       3.50        0.17     3.22   0.276
  59                        12.69       0.00       0.00       6.61       4.23        0.04     0.69   0.333
  60                        12.69       9.36       0.00       7.81       9.84        0.05     0.97   0.446
  61                        12.69       0.00       0.00       6.77       3.05        0.55     9.91   0.240
  62                        12.69       0.00       0.00       6.77       3.03        0.58    10.39   0.239
  64                        12.69       0.00       0.00       6.64       4.06        0.05     0.94   0.320
  
  
  ****************************
  Subcatchment Washoff Summary
  ****************************
  
  ------------------------------------------------------------------------------------------
                                 COD         NH3-N            TN            TP            SS
  Subcatchment                    kg            kg            kg            kg            kg
  ------------------------------------------------------------------------------------------
  1                           10.943         0.000         0.000         0.000         0.000
  2                            0.000         0.000         0.000         0.000         0.000
  3                            0.000         0.000         0.000         0.000         0.000
  4                           10.527         0.000         0.000         0.000         0.000
  5                           31.461         0.000         0.000         0.000         0.000
  6                           17.381         0.000         0.000         0.000         0.000
  7                          472.601         0.000         0.000         0.000         0.000
  8                           15.356         0.000         0.000         0.000         0.000
  9                           28.304         0.000         0.000         0.000         0.000
  17                          13.661         0.000         0.000         0.000         0.000
  18                          15.649         0.000         0.000         0.000         0.000
  28                          58.650         0.000         0.000         0.000         0.000
  29                          26.867         0.000         0.000         0.000         0.000
  30                          29.823         0.000         0.000         0.000         0.000
  31                          13.298         0.000         0.000         0.000         0.000
  33                           4.309         0.000         0.000         0.000         0.000
  34                          32.147         0.000         0.000         0.000         0.000
  35                          11.697         0.000         0.000         0.000         0.000
  36                          69.607         0.000         0.000         0.000         0.000
  39                          12.871         0.000         0.000         0.000         0.000
  40                          22.027         0.000         0.000         0.000         0.000
  41                           8.162         0.000         0.000         0.000         0.000
  42                           9.295         0.000         0.000         0.000         0.000
  43                           2.167         0.000         0.000         0.000         0.000
  44                          69.904         0.000         0.000         0.000         0.000
  45                           4.924         0.000         0.000         0.000         0.000
  46                          26.741         0.000         0.000         0.000         0.000
  47                           5.225         0.000         0.000         0.000         0.000
  48                          12.910         0.000         0.000         0.000         0.000
  55                           9.961         0.000         0.000         0.000         0.000
  56                          29.685         0.000         0.000         0.000         0.000
  57                          17.552         0.000         0.000         0.000         0.000
  59                           4.192         0.000         0.000         0.000         0.000
  60                          13.149         0.000         0.000         0.000         0.000
  61                          48.941         0.000         0.000         0.000         0.000
  62                          51.052         0.000         0.000         0.000         0.000
  64                           5.559         0.000         0.000         0.000         0.000
  ------------------------------------------------------------------------------------------
  System                    1216.600         0.000         0.000         0.000         0.000
  
  
  ******************
  Node Depth Summary
  ******************
  
  ---------------------------------------------------------------------------------
                                 Average  Maximum  Maximum  Time of Max    Reported
                                   Depth    Depth      HGL   Occurrence   Max Depth
  Node                 Type       Meters   Meters   Meters  days hr:min      Meters
  ---------------------------------------------------------------------------------
  WS01000070           JUNCTION     0.00     0.00     0.00     0  00:00        0.00
  WS01000323           JUNCTION     0.00     0.00     0.00     0  00:00        0.00
  WS01000533           JUNCTION     0.00     0.00     6.86     0  00:00        0.00
  WS01005172           JUNCTION     0.00     0.00     0.00     0  00:00        0.00
  WS01005181           JUNCTION     0.00     0.00     0.00     0  00:00        0.00
  WS01009841           JUNCTION     0.00     0.00     0.00     0  00:00        0.00
  WS02000078           JUNCTION     0.00     0.00     0.00     0  00:00        0.00
  WS02000112           JUNCTION     0.00     0.00     0.00     0  00:00        0.00
  WS02000136           JUNCTION     0.00     0.00     0.00     0  00:00        0.00
  WS02001211           JUNCTION     0.41     0.44     5.28     0  01:36        0.44
  WS02001212           JUNCTION     0.34     0.37     5.17     0  03:04        0.37
  WS02001213           JUNCTION     0.43     0.47     5.17     0  03:05        0.47
  WS02003059           JUNCTION     0.38     0.44     5.09     0  03:06        0.44
  WS02003060           JUNCTION     0.42     0.52     5.07     0  03:05        0.51
  WS02003066           JUNCTION     0.14     0.23     5.53     0  03:04        0.22
  WS02003067           JUNCTION     0.24     0.37     5.69     0  03:04        0.35
  WS02003071           JUNCTION     0.47     0.57     4.97     0  03:07        0.57
  WS02003072           JUNCTION     0.38     0.49     4.86     0  03:08        0.49
  WS02003073           JUNCTION     0.45     0.62     4.86     0  03:29        0.59
  WS02003076           JUNCTION     0.40     0.56     4.79     0  03:29        0.52
  WS02003077           JUNCTION     0.06     0.09     5.10     0  03:04        0.09
  WS02003078           JUNCTION     0.04     0.06     6.96     0  03:03        0.06
  WS02003079           JUNCTION     0.12     0.20     7.11     0  03:03        0.20
  WS02003093           JUNCTION     0.01     0.04     7.38     0  03:02        0.04
  WS02003094           JUNCTION     0.10     0.16     7.38     0  03:01        0.16
  WS02003098           JUNCTION     0.06     0.11     7.28     0  03:02        0.11
  WS02003099           JUNCTION     0.13     0.21     7.25     0  03:03        0.21
  WS02003102           JUNCTION     0.11     0.19     7.22     0  03:01        0.19
  WS02003103           JUNCTION     0.13     0.22     7.19     0  03:02        0.22
  WS02003104           JUNCTION     0.13     0.21     7.17     0  03:02        0.21
  WS02003106           JUNCTION     0.13     0.21     7.14     0  03:03        0.21
  WS02004050           JUNCTION     0.29     0.36     4.58     0  03:08        0.36
  WS02004053           JUNCTION     0.00     0.00     0.00     0  00:00        0.00
  WS02004136           JUNCTION     0.17     0.18     6.91     0  01:26        0.18
  WS02004139           JUNCTION     0.34     0.37     5.33     0  01:32        0.37
  WS02004401           JUNCTION     0.21     0.32     6.32     0  03:05        0.32
  WS02004402           JUNCTION     0.22     0.33     6.29     0  03:05        0.33
  WS02004403           JUNCTION     0.21     0.33     6.26     0  03:04        0.33
  WS02004404           JUNCTION     0.29     0.41     6.26     0  03:04        0.41
  WS02004405           JUNCTION     0.29     0.42     6.26     0  03:04        0.42
  WS02004406           JUNCTION     0.28     0.40     6.23     0  03:04        0.40
  WS02004407           JUNCTION     0.26     0.38     6.18     0  03:05        0.38
  WS02004409           JUNCTION     0.26     0.37     6.14     0  03:04        0.37
  WS02004410           JUNCTION     0.25     0.36     6.08     0  03:03        0.36
  WS02004411           JUNCTION     0.24     0.34     6.02     0  03:03        0.34
  WS02004412           JUNCTION     0.20     0.29     5.93     0  03:04        0.29
  WS02004413           JUNCTION     0.20     0.31     5.78     0  03:04        0.31
  WS02004997           JUNCTION     5.60     6.68     8.29     0  03:00        6.68
  WS02005192           JUNCTION     0.10     0.16     8.03     0  03:01        0.16
  WS02005193           JUNCTION     0.10     0.14     7.96     0  03:01        0.14
  WS02005196           JUNCTION     0.10     0.16     8.01     0  03:01        0.16
  WS02006109           JUNCTION     0.25     0.36     6.98     0  03:03        0.36
  WS02006110           JUNCTION     0.24     0.34     6.94     0  03:03        0.34
  WS02006111           JUNCTION     0.12     0.17     6.75     0  03:03        0.17
  WS02006112           JUNCTION     0.24     0.34     6.46     0  03:04        0.34
  WS02006113           JUNCTION     0.21     0.29     6.88     0  03:03        0.29
  WS02006115           JUNCTION     0.20     0.30     6.40     0  03:04        0.30
  WS02006116           JUNCTION     0.22     0.32     6.36     0  03:05        0.32
  WS02006183           JUNCTION     0.00     0.00     0.00     0  00:00        0.00
  WS02006228           JUNCTION     0.24     0.35     7.00     0  03:03        0.35
  WS02006229           JUNCTION     0.21     0.32     7.01     0  03:03        0.32
  WS02006230           JUNCTION     0.18     0.27     7.02     0  03:02        0.27
  WS02006231           JUNCTION     0.13     0.19     7.09     0  03:01        0.19
  WS02006232           JUNCTION     0.13     0.19     7.22     0  03:01        0.19
  WS02006234           JUNCTION     0.12     0.17     7.33     0  03:05        0.17
  WS02006235           JUNCTION     0.16     0.22     7.39     0  03:04        0.22
  WS02006238           JUNCTION     0.16     0.22     7.40     0  03:04        0.22
  WS02006239           JUNCTION     0.16     0.23     7.44     0  03:04        0.23
  WS02006242           JUNCTION     0.17     0.24     7.54     0  03:03        0.24
  WS02006240           JUNCTION     0.13     0.19     7.48     0  03:03        0.19
  WS02006243           JUNCTION     0.12     0.18     7.60     0  03:02        0.17
  WS02006245           JUNCTION     0.13     0.19     7.68     0  03:01        0.19
  WS02006247           JUNCTION     0.14     0.21     7.72     0  03:01        0.21
  WS02006248           JUNCTION     0.10     0.15     7.74     0  03:02        0.15
  WS02006249           JUNCTION     0.12     0.18     7.78     0  03:02        0.18
  WS02006251           JUNCTION     0.11     0.16     7.83     0  03:01        0.16
  WS02006253           JUNCTION     0.07     0.11     7.91     0  03:02        0.11
  WS02618401           JUNCTION     0.00     0.00     0.00     0  00:00        0.00
  WS8802               JUNCTION     0.00     0.00     4.38     0  00:00        0.00
  WSA1649              JUNCTION     0.00     0.00     0.00     0  00:00        0.00
  WSF200               JUNCTION     0.14     0.21     5.31     0  03:05        0.21
  XR-Inflow            JUNCTION     5.45     6.55     8.36     0  02:26        6.55
  WS02004114           JUNCTION     5.58     6.65     8.25     0  03:00        6.65
  outfall-2            OUTFALL      0.00     0.00     7.00     0  00:00        0.00
  outfall-5            OUTFALL      0.00     0.00     7.67     0  00:00        0.00
  outfall-14           OUTFALL      0.00     0.00     7.66     0  00:00        0.00
  outfall-16           OUTFALL      0.00     0.00     8.39     0  00:00        0.00
  12                   OUTFALL      0.28     0.36     0.36     0  03:08        0.36
  XR-storage           STORAGE      6.65     7.72     8.22     0  01:52        7.72
  CC-storage           STORAGE      4.72     5.63     8.81     0  01:39        5.63
  JK-storage           STORAGE      3.84     4.80     7.80     0  01:48        4.80
  
  
  *******************
  Node Inflow Summary
  *******************
  
  -------------------------------------------------------------------------------------------------
                                  Maximum  Maximum                  Lateral       Total        Flow
                                  Lateral    Total  Time of Max      Inflow      Inflow     Balance
                                   Inflow   Inflow   Occurrence      Volume      Volume       Error
  Node                 Type           MLD      MLD  days hr:min    10^6 ltr    10^6 ltr     Percent
  -------------------------------------------------------------------------------------------------
  WS01000070           JUNCTION      0.00     0.00     0  00:00           0           0       0.000 ltr
  WS01000323           JUNCTION      0.00     0.00     0  00:00           0           0       0.000 ltr
  WS01000533           JUNCTION      0.00     0.00     0  00:00           0           0       0.000 ltr
  WS01005172           JUNCTION      0.00     0.00     0  00:00           0           0       0.000 ltr
  WS01005181           JUNCTION      0.00     0.00     0  00:00           0           0       0.000 ltr
  WS01009841           JUNCTION      0.00     0.00     0  00:00           0           0       0.000 ltr
  WS02000078           JUNCTION      0.00     0.00     0  00:00           0           0       0.000 ltr
  WS02000112           JUNCTION      0.00     0.00     0  00:00           0           0       0.000 ltr
  WS02000136           JUNCTION      0.00     0.00     0  00:00           0           0       0.000 ltr
  WS02001211           JUNCTION      0.25    34.59     0  01:32      0.0407        4.84       0.527
  WS02001212           JUNCTION      0.21    34.57     0  01:36      0.0346        4.85       0.292
  WS02001213           JUNCTION      0.30    34.36     0  01:37      0.0489        4.88       0.395
  WS02003059           JUNCTION      0.23    34.91     0  01:38      0.0378         4.9       0.459
  WS02003060           JUNCTION      0.16    69.47     0  03:06      0.0252        7.24       0.437
  WS02003066           JUNCTION      0.08    37.85     0  03:04      0.0122        2.31       0.183
  WS02003067           JUNCTION      0.26    30.88     0  03:05      0.0395        2.31       0.250
  WS02003071           JUNCTION      0.35    65.83     0  03:05      0.0538        7.26       0.458
  WS02003072           JUNCTION      0.24    66.48     0  03:03      0.0382        7.26       0.282
  WS02003073           JUNCTION      0.07    75.32     0  03:08     0.00978        7.63       0.262
  WS02003076           JUNCTION      0.72    82.22     0  03:08        0.12        7.73       0.168
  WS02003077           JUNCTION      0.04     6.15     0  03:03      0.0059       0.382       0.138
  WS02003078           JUNCTION      0.03     6.12     0  03:03     0.00419       0.376      -0.019
  WS02003079           JUNCTION      0.04     6.11     0  03:03     0.00561       0.373       0.250
  WS02003093           JUNCTION      0.02     0.02     0  01:00     0.00306     0.00306       0.733
  WS02003094           JUNCTION      3.44     3.44     0  03:01       0.195       0.198       1.016
  WS02003098           JUNCTION      0.02     3.42     0  03:01     0.00293       0.199       0.591
  WS02003099           JUNCTION      0.07     3.45     0  03:02      0.0109       0.209       1.262
  WS02003102           JUNCTION      2.81     6.12     0  03:01       0.155       0.361       0.582
  WS02003103           JUNCTION      0.02     6.08     0  03:01     0.00239       0.361       0.435
  WS02003104           JUNCTION      0.02     6.07     0  03:02     0.00302       0.363       0.365
  WS02003106           JUNCTION      0.05     6.09     0  03:02     0.00728       0.369       0.451
  WS02004050           JUNCTION      0.72    84.49     0  03:06       0.119        7.84       0.621
  WS02004053           JUNCTION      0.00     0.00     0  00:00           0           0       0.000 ltr
  WS02004136           JUNCTION      0.44    32.92     0  01:20      0.0703        4.76       0.067
  WS02004139           JUNCTION      0.38    33.58     0  01:26      0.0619        4.82       0.371
  WS02004401           JUNCTION      0.05    19.02     0  03:05     0.00897        1.43       0.334
  WS02004402           JUNCTION      0.22    19.21     0  03:05      0.0335        1.46       0.297
  WS02004403           JUNCTION      0.23    19.41     0  03:06      0.0349        1.49       0.234
  WS02004404           JUNCTION      0.24    19.64     0  03:06      0.0365        1.53       0.255
  WS02004405           JUNCTION      1.93    21.09     0  03:05       0.111        1.63       0.363
  WS02004406           JUNCTION      3.90    24.58     0  03:04       0.235        1.86       0.482
  WS02004407           JUNCTION      0.11    24.68     0  03:05      0.0171        1.87       0.426
  WS02004409           JUNCTION      2.69    27.03     0  03:04       0.172        2.03       0.349
  WS02004410           JUNCTION      0.15    27.17     0  03:05      0.0226        2.05       0.358
  WS02004411           JUNCTION      0.25    27.37     0  03:05      0.0379        2.08       0.307
  WS02004412           JUNCTION      3.27    30.21     0  03:03       0.187        2.26       0.223
  WS02004413           JUNCTION      0.11    30.31     0  03:03      0.0172        2.27       0.210
  WS02004997           JUNCTION      0.42    63.57     0  03:00      0.0693        7.24       0.544
  WS02005192           JUNCTION      3.31     3.31     0  03:01       0.192       0.192       0.151
  WS02005193           JUNCTION      0.09     3.48     0  03:01      0.0146       0.225       0.311
  WS02005196           JUNCTION      0.12     3.41     0  03:01       0.019       0.211       0.313
  WS02006109           JUNCTION      0.08    15.32     0  03:03      0.0135        1.13       0.563
  WS02006110           JUNCTION      0.08    15.41     0  03:04      0.0132        1.13       0.537
  WS02006111           JUNCTION      0.24    18.57     0  03:03      0.0366        1.36       0.147
  WS02006112           JUNCTION      0.18    18.72     0  03:03      0.0273        1.39       0.399
  WS02006113           JUNCTION      3.42    18.38     0  03:02       0.204        1.33       0.343
  WS02006115           JUNCTION      0.08    18.79     0  03:04      0.0134         1.4       0.364
  WS02006116           JUNCTION      0.24    18.97     0  03:04       0.036        1.43       0.355
  WS02006183           JUNCTION      0.00     0.00     0  00:00           0           0       0.000 ltr
  WS02006228           JUNCTION      5.26    15.26     0  03:03       0.322        1.12       0.397
  WS02006229           JUNCTION      0.13    10.03     0  03:02        0.02         0.8       0.419
  WS02006230           JUNCTION      0.07     9.95     0  03:02      0.0116       0.783       0.358
  WS02006231           JUNCTION      0.13     9.88     0  03:01      0.0205       0.773       0.215
  WS02006232           JUNCTION      2.36     9.77     0  03:01       0.136       0.754       0.229
  WS02006234           JUNCTION      0.14     7.76     0  03:05      0.0216       0.619       0.251
  WS02006235           JUNCTION      0.14     7.64     0  03:05      0.0223       0.599       0.208
  WS02006238           JUNCTION      0.15     7.51     0  03:04      0.0235       0.578       0.266
  WS02006239           JUNCTION      0.11     7.39     0  03:04      0.0174       0.557       0.439
  WS02006242           JUNCTION      0.08     7.25     0  03:02      0.0129       0.535       0.577
  WS02006240           JUNCTION      0.06     7.30     0  03:03     0.00992       0.542       0.351
  WS02006243           JUNCTION      0.17     7.18     0  03:02      0.0269       0.524       0.337
  WS02006245           JUNCTION      0.07     7.04     0  03:01      0.0113       0.498       0.303
  WS02006247           JUNCTION      2.21     6.98     0  03:01        0.14       0.489       0.308
  WS02006248           JUNCTION      0.12     4.85     0  03:02      0.0192       0.349       0.217
  WS02006249           JUNCTION      0.19     4.75     0  03:01      0.0286       0.331       0.404
  WS02006251           JUNCTION      1.07     4.61     0  03:01      0.0626       0.304       0.367
  WS02006253           JUNCTION      0.11     3.57     0  03:01      0.0173       0.241       0.170
  WS02618401           JUNCTION      0.00     0.00     0  00:00           0           0       0.000 ltr
  WS8802               JUNCTION      0.00     0.00     0  00:00           0           0       0.000 ltr
  WSA1649              JUNCTION      0.00     0.00     0  00:00           0           0       0.000 ltr
  WSF200               JUNCTION      0.14    35.82     0  03:04      0.0216        2.33       0.013
  XR-Inflow            JUNCTION    100.10   100.10     0  03:00        8.31        8.31       0.290
  WS02004114           JUNCTION      0.57    64.10     0  02:57      0.0916        7.29       0.337
  outfall-2            OUTFALL       0.00     0.00     0  00:00           0           0       0.000 ltr
  outfall-5            OUTFALL       0.00     0.00     0  00:00           0           0       0.000 ltr
  outfall-14           OUTFALL       0.00     0.00     0  00:00           0           0       0.000 ltr
  outfall-16           OUTFALL       0.00     0.00     0  00:00           0           0       0.000 ltr
  12                   OUTFALL       0.00    76.09     0  03:08           0        7.79       0.000
  XR-storage           STORAGE       0.00    64.10     0  02:57           0        7.27       0.644
  CC-storage           STORAGE      11.39    11.39     0  03:00       0.835       0.835      -0.008
  JK-storage           STORAGE      11.28    11.28     0  03:01       0.751       0.751       0.006
  
  
  **********************
  Node Surcharge Summary
  **********************
  
  Surcharging occurs when water rises above the top of the highest conduit.
  ---------------------------------------------------------------------
                                               Max. Height   Min. Depth
                                   Hours       Above Crown    Below Rim
  Node                 Type      Surcharged         Meters       Meters
  ---------------------------------------------------------------------
  WS01000070           JUNCTION        4.00          0.000        0.000
  WS01000323           JUNCTION        4.00          0.000        0.000
  WS01000533           JUNCTION        4.00          0.000        2.147
  WS01005172           JUNCTION        4.00          0.000        0.000
  WS01005181           JUNCTION        4.00          0.000        0.000
  WS01009841           JUNCTION        4.00          0.000        0.000
  WS02000078           JUNCTION        4.00          0.000        0.000
  WS02000112           JUNCTION        4.00          0.000        0.000
  WS02000136           JUNCTION        4.00          0.000        0.000
  WS02004053           JUNCTION        4.00          0.000        0.000
  WS02004997           JUNCTION        3.88          5.783        0.217
  WS02006183           JUNCTION        4.00          0.000        0.000
  WS02618401           JUNCTION        4.00          0.000        0.000
  WS8802               JUNCTION        4.00          0.000        4.942
  WSA1649              JUNCTION        4.00          0.000        0.000
  XR-Inflow            JUNCTION        3.87          5.650        0.000
  WS02004114           JUNCTION        3.88          5.748        0.767
  
  
  *********************
  Node Flooding Summary
  *********************
  
  Flooding refers to all water that overflows a node, whether it ponds or not.
  --------------------------------------------------------------------------
                                                             Total   Maximum
                                 Maximum   Time of Max       Flood    Ponded
                        Hours       Rate    Occurrence      Volume     Depth
  Node                 Flooded       MLD   days hr:min    10^6 ltr    Meters
  --------------------------------------------------------------------------
  XR-Inflow               1.56     36.91      0  03:00       1.117     0.000
  XR-storage              2.13     31.62      0  02:58       2.470     0.000
  CC-storage              2.35     11.39      0  03:00       0.676     0.000
  JK-storage              2.20     11.28      0  03:01       0.615     0.000
  
  
  **********************
  Storage Volume Summary
  **********************
  
  --------------------------------------------------------------------------------------------------
                         Average     Avg  Evap Exfil       Maximum     Max    Time of Max    Maximum
                          Volume    Pcnt  Pcnt  Pcnt        Volume    Pcnt     Occurrence    Outflow
  Storage Unit           1000 m3    Full  Loss  Loss       1000 m3    Full    days hr:min        MLD
  --------------------------------------------------------------------------------------------------
  XR-storage               0.054      86     0     0         0.063     100       0  01:52      32.48
  CC-storage               0.133      84     0     0         0.159     100       0  01:39       0.00
  JK-storage               0.109      80     0     0         0.136     100       0  01:48       0.00
  
  
  ***********************
  Outfall Loading Summary
  ***********************
  
  ---------------------------------------------------------------------------------------------------------------------------------
                         Flow       Avg       Max       Total         Total         Total         Total         Total         Total
                         Freq      Flow      Flow      Volume           COD         NH3-N            TN            TP            SS
  Outfall Node           Pcnt       MLD       MLD    10^6 ltr            kg            kg            kg            kg            kg
  ---------------------------------------------------------------------------------------------------------------------------------
  outfall-2              0.00      0.00      0.00       0.000         0.000         0.000         0.000         0.000         0.000
  outfall-5              0.00      0.00      0.00       0.000         0.000         0.000         0.000         0.000         0.000
  outfall-14             0.00      0.00      0.00       0.000         0.000         0.000         0.000         0.000         0.000
  outfall-16             0.00      0.00      0.00       0.000         0.000         0.000         0.000         0.000         0.000
  12                    99.98     51.12     76.09       7.792      1100.302         0.000         0.000         0.000         0.000
  ---------------------------------------------------------------------------------------------------------------------------------
  System                20.00     51.12     76.09       7.792      1100.302         0.000         0.000         0.000         0.000
  
  
  ********************
  Link Flow Summary
  ********************
  
  -----------------------------------------------------------------------------
                                 Maximum  Time of Max   Maximum    Max/    Max/
                                  |Flow|   Occurrence   |Veloc|    Full    Full
  Link                 Type          MLD  days hr:min     m/sec    Flow   Depth
  -----------------------------------------------------------------------------
  WSL49                CONDUIT     81.50     0  03:08      1.95    1.01    0.48
  WSL1465              CONDUIT     34.97     0  01:38      1.62    0.32    0.48
  WSL1472              CONDUIT     66.26     0  03:03      1.63    0.76    0.44
  WSL1475              CONDUIT     83.78     0  03:06      2.48    0.89    0.32
  WSL1476              CONDUIT      6.15     0  03:04      0.40    0.03    0.44
  WSL1477              CONDUIT      6.10     0  03:03      1.58    0.24    0.22
  WSL1490              CONDUIT     34.36     0  01:36      1.37    0.56    0.40
  WSL1491              CONDUIT     34.05     0  01:37      1.39    0.20    0.42
  WSL1492              CONDUIT     34.68     0  01:38      1.35    0.53    0.46
  WSL1507              CONDUIT      0.08     0  03:03      0.11    0.00    0.13
  WSL1508              CONDUIT      3.40     0  03:01      0.71    0.10    0.17
  WSL1512              CONDUIT      3.40     0  03:02      0.50    0.02    0.16
  WSL1513              CONDUIT      3.47     0  03:03      0.42    0.20    0.25
  WSL1515              CONDUIT     37.78     0  03:04      2.07    0.37    0.24
  WSL1516              CONDUIT      6.12     0  03:03      3.29    0.02    0.13
  WSL1518              CONDUIT      6.06     0  03:01      0.69    0.12    0.26
  WSL1519              CONDUIT      6.06     0  03:02      0.66    0.15    0.26
  WSL1521              CONDUIT      6.08     0  03:03      0.69    0.17    0.26
  WSL1543              CONDUIT      6.05     0  03:02      0.65    0.19    0.27
  WSL1961              CONDUIT     33.20     0  01:26      2.61    0.07    0.28
  WSL1964              CONDUIT     34.34     0  01:32      1.28    0.19    0.34
  WSL2010              CONDUIT     19.23     0  03:06      1.00    0.25    0.33
  WSL2011              CONDUIT     19.45     0  03:06      0.86    0.13    0.37
  WSL2012              CONDUIT     19.67     0  03:06      0.74    0.30    0.42
  WSL2013              CONDUIT     21.11     0  03:05      0.81    0.52    0.41
  WSL2014              CONDUIT     24.59     0  03:05      1.00    0.39    0.39
  WSL2015              CONDUIT     24.71     0  03:05      1.05    0.33    0.38
  WSL2016              CONDUIT     27.05     0  03:05      1.19    0.31    0.37
  WSL2017              CONDUIT     27.16     0  03:05      1.28    0.33    0.35
  WSL2018              CONDUIT     30.22     0  03:03      1.80    0.18    0.30
  WSL2019              CONDUIT     30.67     0  03:05      1.64    0.18    0.34
  WSL2028              CONDUIT     19.03     0  03:05      1.00    0.20    0.32
  WSL2029              CONDUIT     27.42     0  03:06      1.51    0.35    0.31
  WSL2038              CONDUIT      3.31     0  03:01      0.63    0.16    0.27
  WSL2039              CONDUIT      3.48     0  03:01      0.96    0.18    0.21
  WSL2041              CONDUIT      3.40     0  03:01      0.72    0.17    0.25
  WSL2294              CONDUIT     15.33     0  03:04      0.85    0.51    0.43
  WSL2295              CONDUIT     15.44     0  03:04      0.99    0.69    0.39
  WSL2296              CONDUIT     18.57     0  03:03      1.54    0.10    0.32
  WSL2297              CONDUIT     18.71     0  03:04      1.00    0.36    0.32
  WSL2298              CONDUIT     18.38     0  03:03      1.76    0.85    0.29
  WSL2301              CONDUIT     18.78     0  03:04      1.04    0.17    0.31
  WSL2302              CONDUIT     18.97     0  03:05      1.01    0.23    0.32
  WSL2441              CONDUIT     15.24     0  03:03      0.82    0.39    0.44
  WSL2442              CONDUIT      9.92     0  03:02      0.74    0.25    0.42
  WSL2443              CONDUIT      9.88     0  03:02      1.04    0.15    0.33
  WSL2444              CONDUIT      9.76     0  03:01      1.37    0.15    0.27
  WSL2446              CONDUIT      7.77     0  03:05      1.16    0.13    0.26
  WSL2447              CONDUIT      7.64     0  03:05      1.01    0.39    0.28
  WSL2448              CONDUIT      7.52     0  03:05      0.86    0.21    0.31
  WSL2449              CONDUIT      7.39     0  03:04      0.81    0.26    0.32
  WSL2450              CONDUIT      7.29     0  03:04      0.86    0.15    0.30
  WSL2451              CONDUIT      7.24     0  03:03      0.83    0.47    0.31
  WSL2452              CONDUIT      7.17     0  03:02      0.86    0.14    0.30
  WSL2454              CONDUIT      7.04     0  03:02      1.03    0.16    0.26
  WSL2478              CONDUIT      6.97     0  03:01      0.90    0.25    0.28
  WSL2479              CONDUIT      4.85     0  03:02      0.72    0.09    0.26
  WSL2480              CONDUIT      4.74     0  03:02      0.81    0.22    0.23
  WSL2482              CONDUIT      4.60     0  03:01      0.74    0.12    0.24
  WSL2484              CONDUIT      3.57     0  03:02      0.79    0.05    0.19
  WSL2493              CONDUIT     10.00     0  03:03      0.58    0.17    0.42
  WSL2867              CONDUIT     35.70     0  03:04      3.00    0.07    0.18
  WSL2868              CONDUIT     34.82     0  03:05      1.42    0.07    0.30
  WSL348               CONDUIT     63.16     0  03:00      1.88    0.58    1.00
  WSL175               CONDUIT     63.56     0  03:00      2.29    2.14    1.00
  WSL1467              CONDUIT     65.53     0  03:05      1.55    0.35    0.45
  WSL1473              CONDUIT     69.52     0  03:08      1.74    0.28    0.45
  XRpipe               CONDUIT     64.10     0  02:57      2.54    0.16    1.00
  8                    CONDUIT      0.00     0  00:00      0.00    0.00    0.00
  19                   CONDUIT      0.00     0  00:00      0.00    0.00    0.00
  17                   CONDUIT      0.00     0  00:00      0.00    0.00    0.00
  4                    CONDUIT      0.00     0  00:00      0.00    0.00    0.00
  2                    CONDUIT     76.09     0  03:08      3.48    0.28    0.36
  XR-Pump-1            PUMP         8.12     0  00:09              1.00
  XR-Pump-3            PUMP         8.12     0  00:11              1.00
  XR-Pump-2            PUMP         8.12     0  00:10              1.00
  XR-Pump-4            PUMP         8.12     0  01:20              1.00
  CC-Pump-1            PUMP         0.00     0  00:00              0.00
  CC-Pump-2            PUMP         0.00     0  00:00              0.00
  JK-Pump-1            PUMP         0.00     0  00:00              0.00
  JK-Pump-2            PUMP         0.00     0  00:00              0.00
  
  
  ***************************
  Flow Classification Summary
  ***************************
  
  -------------------------------------------------------------------------------------
                      Adjusted    ---------- Fraction of Time in Flow Class ---------- 
                       /Actual         Up    Down  Sub   Sup   Up    Down  Norm  Inlet 
  Conduit               Length    Dry  Dry   Dry   Crit  Crit  Crit  Crit  Ltd   Ctrl  
  -------------------------------------------------------------------------------------
  WSL49                   1.00   0.00  0.00  0.00  1.00  0.00  0.00  0.00  0.00  0.00
  WSL1465                 1.00   0.00  0.00  0.00  1.00  0.00  0.00  0.00  0.10  0.00
  WSL1472                 1.00   0.00  0.00  0.00  1.00  0.00  0.00  0.00  0.00  0.00
  WSL1475                 1.00   0.00  0.00  0.00  0.10  0.90  0.00  0.00  0.00  0.00
  WSL1476                 1.00   0.00  0.00  0.00  1.00  0.00  0.00  0.00  1.00  0.00
  WSL1477                 1.00   0.00  0.00  0.00  0.01  0.99  0.00  0.00  0.55  0.00
  WSL1490                 1.00   0.00  0.00  0.00  1.00  0.00  0.00  0.00  0.00  0.00
  WSL1491                 1.00   0.00  0.00  0.00  1.00  0.00  0.00  0.00  0.05  0.00
  WSL1492                 1.00   0.00  0.00  0.00  1.00  0.00  0.00  0.00  0.00  0.00
  WSL1507                 1.00   0.00  0.00  0.00  1.00  0.00  0.00  0.00  0.76  0.00
  WSL1508                 1.00   0.00  0.00  0.00  1.00  0.00  0.00  0.00  0.00  0.00
  WSL1512                 1.00   0.00  0.00  0.00  1.00  0.00  0.00  0.00  1.00  0.00
  WSL1513                 1.00   0.00  0.00  0.00  1.00  0.00  0.00  0.00  0.00  0.00
  WSL1515                 1.00   0.00  0.00  0.00  0.10  0.90  0.00  0.00  0.03  0.00
  WSL1516                 1.00   0.00  0.00  0.00  0.00  1.00  0.00  0.00  1.00  0.00
  WSL1518                 1.00   0.00  0.00  0.00  1.00  0.00  0.00  0.00  0.64  0.00
  WSL1519                 1.00   0.00  0.00  0.00  1.00  0.00  0.00  0.00  0.34  0.00
  WSL1521                 1.00   0.00  0.00  0.00  1.00  0.00  0.00  0.00  0.02  0.00
  WSL1543                 1.00   0.00  0.00  0.00  1.00  0.00  0.00  0.00  0.02  0.00
  WSL1961                 1.00   0.00  0.00  0.00  0.02  0.98  0.00  0.00  0.98  0.00
  WSL1964                 1.00   0.00  0.00  0.00  1.00  0.00  0.00  0.00  0.06  0.00
  WSL2010                 1.00   0.00  0.00  0.00  1.00  0.00  0.00  0.00  0.00  0.00
  WSL2011                 1.00   0.00  0.00  0.00  1.00  0.00  0.00  0.00  0.27  0.00
  WSL2012                 1.00   0.00  0.00  0.00  1.00  0.00  0.00  0.00  0.00  0.00
  WSL2013                 1.00   0.00  0.00  0.00  1.00  0.00  0.00  0.00  0.00  0.00
  WSL2014                 1.00   0.00  0.00  0.00  1.00  0.00  0.00  0.00  0.00  0.00
  WSL2015                 1.00   0.00  0.00  0.00  1.00  0.00  0.00  0.00  0.02  0.00
  WSL2016                 1.00   0.00  0.00  0.00  1.00  0.00  0.00  0.00  0.01  0.00
  WSL2017                 1.00   0.00  0.00  0.00  1.00  0.00  0.00  0.00  0.04  0.00
  WSL2018                 1.00   0.00  0.00  0.00  0.01  0.99  0.00  0.00  0.07  0.00
  WSL2019                 1.00   0.00  0.00  0.00  0.22  0.78  0.00  0.00  0.11  0.00
  WSL2028                 1.00   0.00  0.00  0.00  1.00  0.00  0.00  0.00  0.06  0.00
  WSL2029                 1.00   0.00  0.00  0.00  0.73  0.27  0.00  0.00  0.00  0.00
  WSL2038                 1.00   0.00  0.00  0.00  1.00  0.00  0.00  0.00  0.02  0.00
  WSL2039                 1.00   0.00  0.00  0.00  0.79  0.21  0.00  0.00  0.00  0.00
  WSL2041                 1.00   0.00  0.00  0.00  1.00  0.00  0.00  0.00  0.36  0.00
  WSL2294                 1.00   0.00  0.00  0.00  1.00  0.00  0.00  0.00  0.00  0.00
  WSL2295                 1.00   0.00  0.00  0.00  1.00  0.00  0.00  0.00  0.00  0.00
  WSL2296                 1.00   0.00  0.00  0.00  0.25  0.75  0.00  0.00  1.00  0.00
  WSL2297                 1.00   0.00  0.00  0.00  1.00  0.00  0.00  0.00  0.00  0.00
  WSL2298                 1.00   0.00  0.00  0.00  0.06  0.94  0.00  0.00  0.00  0.00
  WSL2301                 1.00   0.00  0.00  0.00  1.00  0.00  0.00  0.00  0.09  0.00
  WSL2302                 1.00   0.00  0.00  0.00  1.00  0.00  0.00  0.00  0.00  0.00
  WSL2441                 1.00   0.00  0.00  0.00  1.00  0.00  0.00  0.00  0.00  0.00
  WSL2442                 1.00   0.00  0.00  0.00  1.00  0.00  0.00  0.00  0.21  0.00
  WSL2443                 1.00   0.00  0.00  0.00  1.00  0.00  0.00  0.00  0.86  0.00
  WSL2444                 1.00   0.00  0.00  0.00  0.02  0.98  0.00  0.00  0.42  0.00
  WSL2446                 1.00   0.00  0.00  0.00  0.40  0.60  0.00  0.00  0.06  0.00
  WSL2447                 1.00   0.00  0.00  0.00  1.00  0.00  0.00  0.00  0.00  0.00
  WSL2448                 1.00   0.00  0.00  0.00  1.00  0.00  0.00  0.00  0.01  0.00
  WSL2449                 1.00   0.00  0.00  0.00  1.00  0.00  0.00  0.00  0.03  0.00
  WSL2450                 1.00   0.00  0.00  0.00  1.00  0.00  0.00  0.00  0.67  0.00
  WSL2451                 1.00   0.00  0.00  0.00  1.00  0.00  0.00  0.00  0.00  0.00
  WSL2452                 1.00   0.00  0.00  0.00  1.00  0.00  0.00  0.00  0.99  0.00
  WSL2454                 1.00   0.00  0.00  0.00  1.00  0.00  0.00  0.00  0.01  0.00
  WSL2478                 1.00   0.00  0.00  0.00  1.00  0.00  0.00  0.00  0.00  0.00
  WSL2479                 1.00   0.00  0.00  0.00  1.00  0.00  0.00  0.00  0.88  0.00
  WSL2480                 1.00   0.00  0.00  0.00  1.00  0.00  0.00  0.00  0.00  0.00
  WSL2482                 1.00   0.00  0.00  0.00  1.00  0.00  0.00  0.00  0.89  0.00
  WSL2484                 1.00   0.00  0.00  0.00  0.99  0.01  0.00  0.00  0.99  0.00
  WSL2493                 1.00   0.00  0.00  0.00  1.00  0.00  0.00  0.00  0.05  0.00
  WSL2867                 1.00   0.00  0.00  0.00  0.00  1.00  0.00  0.00  0.16  0.00
  WSL2868                 1.00   0.00  0.00  0.00  0.98  0.02  0.00  0.00  0.99  0.00
  WSL348                  1.00   0.00  0.00  0.00  1.00  0.00  0.00  0.00  0.01  0.00
  WSL175                  1.00   0.00  0.00  0.00  0.99  0.01  0.00  0.00  0.00  0.00
  WSL1467                 1.00   0.00  0.00  0.00  1.00  0.00  0.00  0.00  0.06  0.00
  WSL1473                 1.00   0.00  0.00  0.00  1.00  0.00  0.00  0.00  0.06  0.00
  XRpipe                  1.00   0.00  0.00  0.00  0.99  0.01  0.00  0.00  0.01  0.00
  8                       1.00   1.00  0.00  0.00  0.00  0.00  0.00  0.00  0.00  0.00
  19                      1.00   1.00  0.00  0.00  0.00  0.00  0.00  0.00  0.00  0.00
  17                      1.00   1.00  0.00  0.00  0.00  0.00  0.00  0.00  0.00  0.00
  4                       1.00   1.00  0.00  0.00  0.00  0.00  0.00  0.00  0.00  0.00
  2                       1.00   0.00  0.00  0.00  0.00  1.00  0.00  0.00  0.18  0.00
  
  
  *************************
  Conduit Surcharge Summary
  *************************
  
  ----------------------------------------------------------------------------
                                                           Hours        Hours 
                         --------- Hours Full --------   Above Full   Capacity
  Conduit                Both Ends  Upstream  Dnstream   Normal Flow   Limited
  ----------------------------------------------------------------------------
  WSL49                       0.01      0.01      0.01      0.01         0.01
  WSL348                      3.87      3.87      3.88      0.01         0.01
  WSL175                      3.88      3.88      3.88      2.47         2.57
  XRpipe                      3.88      3.88      3.96      0.01         0.01
  
  
  ***************
  Pumping Summary
  ***************
  
  ---------------------------------------------------------------------------------------------------------
                                                  Min       Avg       Max     Total     Power    % Time Off
                        Percent   Number of      Flow      Flow      Flow    Volume     Usage    Pump Curve
  Pump                 Utilized   Start-Ups       MLD       MLD       MLD  10^6 ltr     Kw-hr    Low   High
  ---------------------------------------------------------------------------------------------------------
  XR-Pump-1               96.04           1      0.00      8.12      8.12     1.300      5.01    0.0    0.0
  XR-Pump-3               90.97          14      0.00      8.12      8.12     1.231      4.69    0.0    0.0
  XR-Pump-2               95.73           1      0.00      8.12      8.12     1.295      4.98    0.0    0.0
  XR-Pump-4               63.69           6      0.00      8.12      8.12     0.862      3.01    0.0    0.0
  CC-Pump-1                0.00           0      0.00      0.00      0.00     0.000      0.00    0.0    0.0
  CC-Pump-2                0.00           0      0.00      0.00      0.00     0.000      0.00    0.0    0.0
  JK-Pump-1                0.00           0      0.00      0.00      0.00     0.000      0.00    0.0    0.0
  JK-Pump-2                0.00           0      0.00      0.00      0.00     0.000      0.00    0.0    0.0
  
  
  ***************************
  Link Pollutant Load Summary
  ***************************
  
  ------------------------------------------------------------------------------------------
                                 COD         NH3-N            TN            TP            SS
  Link                            kg            kg            kg            kg            kg
  ------------------------------------------------------------------------------------------
  WSL49                     1066.856         0.000         0.000         0.000         0.000
  WSL1465                    647.781         0.000         0.000         0.000         0.000
  WSL1472                   1011.361         0.000         0.000         0.000         0.000
  WSL1475                   1085.363         0.000         0.000         0.000         0.000
  WSL1476                     52.639         0.000         0.000         0.000         0.000
  WSL1477                     50.703         0.000         0.000         0.000         0.000
  WSL1490                    633.482         0.000         0.000         0.000         0.000
  WSL1491                    637.454         0.000         0.000         0.000         0.000
  WSL1492                    644.071         0.000         0.000         0.000         0.000
  WSL1507                      0.507         0.000         0.000         0.000         0.000
  WSL1508                     30.218         0.000         0.000         0.000         0.000
  WSL1512                     30.612         0.000         0.000         0.000         0.000
  WSL1513                     32.157         0.000         0.000         0.000         0.000
  WSL1515                    353.306         0.000         0.000         0.000         0.000
  WSL1516                     51.341         0.000         0.000         0.000         0.000
  WSL1518                     48.046         0.000         0.000         0.000         0.000
  WSL1519                     48.711         0.000         0.000         0.000         0.000
  WSL1521                     49.773         0.000         0.000         0.000         0.000
  WSL1543                     48.313         0.000         0.000         0.000         0.000
  WSL1961                    620.682         0.000         0.000         0.000         0.000
  WSL1964                    629.494         0.000         0.000         0.000         0.000
  WSL2010                    197.516         0.000         0.000         0.000         0.000
  WSL2011                    202.861         0.000         0.000         0.000         0.000
  WSL2012                    208.401         0.000         0.000         0.000         0.000
  WSL2013                    219.991         0.000         0.000         0.000         0.000
  WSL2014                    280.711         0.000         0.000         0.000         0.000
  WSL2015                    282.346         0.000         0.000         0.000         0.000
  WSL2016                    318.406         0.000         0.000         0.000         0.000
  WSL2017                    321.044         0.000         0.000         0.000         0.000
  WSL2018                    345.429         0.000         0.000         0.000         0.000
  WSL2019                    347.594         0.000         0.000         0.000         0.000
  WSL2028                    192.556         0.000         0.000         0.000         0.000
  WSL2029                    326.373         0.000         0.000         0.000         0.000
  WSL2038                     20.474         0.000         0.000         0.000         0.000
  WSL2039                     25.973         0.000         0.000         0.000         0.000
  WSL2041                     23.612         0.000         0.000         0.000         0.000
  WSL2294                    170.346         0.000         0.000         0.000         0.000
  WSL2295                    171.628         0.000         0.000         0.000         0.000
  WSL2296                    181.198         0.000         0.000         0.000         0.000
  WSL2297                    184.937         0.000         0.000         0.000         0.000
  WSL2298                    175.386         0.000         0.000         0.000         0.000
  WSL2301                    186.466         0.000         0.000         0.000         0.000
  WSL2302                    191.744         0.000         0.000         0.000         0.000
  WSL2441                    169.050         0.000         0.000         0.000         0.000
  WSL2442                     92.261         0.000         0.000         0.000         0.000
  WSL2443                     90.683         0.000         0.000         0.000         0.000
  WSL2444                     87.470         0.000         0.000         0.000         0.000
  WSL2446                     85.414         0.000         0.000         0.000         0.000
  WSL2447                     82.017         0.000         0.000         0.000         0.000
  WSL2448                     78.457         0.000         0.000         0.000         0.000
  WSL2449                     74.745         0.000         0.000         0.000         0.000
  WSL2450                     72.150         0.000         0.000         0.000         0.000
  WSL2451                     70.731         0.000         0.000         0.000         0.000
  WSL2452                     68.984         0.000         0.000         0.000         0.000
  WSL2454                     64.706         0.000         0.000         0.000         0.000
  WSL2478                     63.003         0.000         0.000         0.000         0.000
  WSL2479                     48.101         0.000         0.000         0.000         0.000
  WSL2480                     44.954         0.000         0.000         0.000         0.000
  WSL2482                     40.350         0.000         0.000         0.000         0.000
  WSL2484                     28.831         0.000         0.000         0.000         0.000
  WSL2493                     95.197         0.000         0.000         0.000         0.000
  WSL2867                    354.712         0.000         0.000         0.000         0.000
  WSL2868                    358.318         0.000         0.000         0.000         0.000
  WSL348                     889.383         0.000         0.000         0.000         0.000
  WSL175                     896.467         0.000         0.000         0.000         0.000
  WSL1467                   1006.554         0.000         0.000         0.000         0.000
  WSL1473                   1015.121         0.000         0.000         0.000         0.000
  XRpipe                     909.688         0.000         0.000         0.000         0.000
  8                            0.000         0.000         0.000         0.000         0.000
  19                           0.000         0.000         0.000         0.000         0.000
  17                           0.000         0.000         0.000         0.000         0.000
  4                            0.000         0.000         0.000         0.000         0.000
  2                         1100.302         0.000         0.000         0.000         0.000
  XR-Pump-1                  173.274         0.000         0.000         0.000         0.000
  XR-Pump-3                  161.817         0.000         0.000         0.000         0.000
  XR-Pump-2                  172.567         0.000         0.000         0.000         0.000
  XR-Pump-4                  101.099         0.000         0.000         0.000         0.000
  CC-Pump-1                    0.000         0.000         0.000         0.000         0.000
  CC-Pump-2                    0.000         0.000         0.000         0.000         0.000
  JK-Pump-1                    0.000         0.000         0.000         0.000         0.000
  JK-Pump-2                    0.000         0.000         0.000         0.000         0.000
  

  Analysis begun on:  Mon Mar 18 14:39:09 2019
  Analysis ended on:  Mon Mar 18 14:39:10 2019
  Total elapsed time: 00:00:01