
  EPA STORM WATER MANAGEMENT MODEL - VERSION 5.1 (Build 5.3.0.dev0)
  --------------------------------------------------------------

  
  *********************************************************
  NOTE: The summary statistics displayed in this report are
  based on results found at every computational time step,  
  not just on results from each reporting time step.
  *********************************************************
  
  ****************
  Analysis Options
  ****************
  Flow Units ............... MLD
  Process Models:
    Rainfall/Runoff ........ YES
    RDII ................... NO
    Snowmelt ............... NO
    Groundwater ............ NO
    Flow Routing ........... YES
    Ponding Allowed ........ NO
    Water Quality .......... YES
  Infiltration Method ...... GREEN_AMPT
  Flow Routing Method ...... DYNWAVE
  Surcharge Method ......... EXTRAN
  Starting Date ............ 08/28/2015 08:00:00
  Ending Date .............. 08/28/2015 11:50:00
  Antecedent Dry Days ...... 4.0
  Report Time Step ......... 00:01:00
  Wet Time Step ............ 00:01:00
  Dry Time Step ............ 00:01:00
  Routing Time Step ........ 5.00 sec
  Variable Time Step ....... YES
  Maximum Trials ........... 8
  Number of Threads ........ 1
  Head Tolerance ........... 0.001500 m
  
  
  **************************        Volume         Depth
  Runoff Quantity Continuity     hectare-m            mm
  **************************     ---------       -------
  Total Precipitation ......         0.832        13.452
  Evaporation Loss .........         0.000         0.000
  Infiltration Loss ........         0.413         6.684
  Surface Runoff ...........         0.153         2.471
  Final Storage ............         0.266         4.298
  Continuity Error (%) .....        -0.009
  
  
  **************************           COD         NH3-N            TN            TP            SS
  Runoff Quality Continuity             kg            kg            kg            kg            kg
  **************************    ----------    ----------    ----------    ----------    ----------
  Initial Buildup ..........      2504.640         0.000         0.000         0.000         0.000
  Surface Buildup ..........        20.217         0.000         0.000         0.000         0.000
  Wet Deposition ...........         0.000         0.000         0.000         0.000         0.000
  Sweeping Removal .........         0.000         0.000         0.000         0.000         0.000
  Infiltration Loss ........        49.502         0.000         0.000         0.000         0.000
  BMP Removal ..............         0.000         0.000         0.000         0.000         0.000
  Surface Runoff ...........       184.259         0.000         0.000         0.000         0.000
  Remaining Buildup ........      2290.200         0.000         0.000         0.000         0.000
  Continuity Error (%) .....         0.035         0.000         0.000         0.000         0.000
  
  
  **************************        Volume        Volume
  Flow Routing Continuity        hectare-m      10^6 ltr
  **************************     ---------     ---------
  Dry Weather Inflow .......         0.000         0.000
  Wet Weather Inflow .......         0.152         1.525
  Groundwater Inflow .......         0.000         0.000
  RDII Inflow ..............         0.000         0.000
  External Inflow ..........         0.082         0.822
  External Outflow .........         0.100         1.001
  Flooding Loss ............         0.068         0.682
  Evaporation Loss .........         0.000         0.000
  Exfiltration Loss ........         0.000         0.000
  Initial Stored Volume ....         0.000         0.000
  Final Stored Volume ......         0.062         0.619
  Continuity Error (%) .....         1.913
  
  
  **************************           COD         NH3-N            TN            TP            SS
  Quality Routing Continuity            kg            kg            kg            kg            kg
  **************************    ----------    ----------    ----------    ----------    ----------
  Dry Weather Inflow .......         0.000         0.000         0.000         0.000         0.000
  Wet Weather Inflow .......       183.786         0.000         0.000         0.000         0.000
  Groundwater Inflow .......         0.000         0.000         0.000         0.000         0.000
  RDII Inflow ..............         0.000         0.000         0.000         0.000         0.000
  External Inflow ..........       137.266         0.000         0.000         0.000         0.000
  External Outflow .........       128.884         0.000         0.000         0.000         0.000
  Flooding Loss ............        88.233         0.000         0.000         0.000         0.000
  Exfiltration Loss ........         0.000         0.000         0.000         0.000         0.000
  Mass Reacted .............         0.000         0.000         0.000         0.000         0.000
  Initial Stored Mass ......         0.000         0.000         0.000         0.000         0.000
  Final Stored Mass ........        96.137         0.000         0.000         0.000         0.000
  Continuity Error (%) .....         2.429         0.000         0.000         0.000         0.000
  
  
  *************************
  Highest Continuity Errors
  *************************
  Node WS02006230 (9.80%)
  Node WS02006115 (7.48%)
  Node WS02006116 (6.94%)
  Node WS02006229 (6.63%)
  Node WS02006110 (6.31%)
  
  
  ***************************
  Time-Step Critical Elements
  ***************************
  Link 8 (80.07%)
  Link WSL2448 (15.93%)
  
  
  ********************************
  Highest Flow Instability Indexes
  ********************************
  Link WSL2302 (4)
  Link WSL2301 (4)
  Link WSL2297 (4)
  Link WSL2296 (3)
  Link WSL2298 (3)
  
  
  *************************
  Routing Time Step Summary
  *************************
  Minimum Time Step           :     0.44 sec
  Average Time Step           :     1.38 sec
  Maximum Time Step           :     5.00 sec
  Percent in Steady State     :     0.00
  Average Iterations per Step :     2.06
  Percent Not Converging      :     0.23
  
  
  ***************************
  Subcatchment Runoff Summary
  ***************************
  
  ------------------------------------------------------------------------------------------------------------------------------
                            Total      Total      Total      Total     Imperv       Perv      Total       Total     Peak  Runoff
                           Precip      Runon       Evap      Infil     Runoff     Runoff     Runoff      Runoff   Runoff   Coeff
  Subcatchment                 mm         mm         mm         mm         mm         mm         mm    10^6 ltr      MLD
  ------------------------------------------------------------------------------------------------------------------------------
  1                         13.45      11.85       0.00       7.70       5.94       3.75       9.69        0.12     2.82   0.383
  2                         13.45       0.00       0.00       6.41       3.14       0.70       3.83        0.13     3.47   0.285
  3                         13.45       0.00       0.00       6.43       3.08       0.58       3.66        0.19     4.90   0.272
  35                        13.45       0.00       0.00       6.41       3.15       0.73       3.88        0.12     3.17   0.288
  36                        13.45       7.29       0.00       7.43       4.65       1.40       6.05        0.36     8.56   0.292
  40                        13.45       2.02       0.00       6.72       3.57       0.90       4.47        0.17     4.54   0.289
  41                        13.45       0.00       0.00       6.38       3.20       0.88       4.08        0.08     2.19   0.303
  42                        13.45       0.00       0.00       6.39       3.18       0.82       4.01        0.09     2.50   0.298
  43                        13.45       0.00       0.00       6.25       3.30       1.69       4.99        0.02     0.55   0.371
  44                        13.45     100.83       0.00      12.09      27.73      51.11      78.83        0.29     6.22   0.690
  45                        13.45       0.00       0.00       6.34       3.25       1.14       4.39        0.05     1.29   0.326
  46                        13.45       6.12       0.00       7.22       4.58       1.91       6.49        0.14     3.52   0.332
  47                        13.45       0.00       0.00       6.35       3.24       1.11       4.35        0.05     1.38   0.324
  48                        13.45       3.05       0.00       6.81       3.92       1.53       5.45        0.09     2.30   0.330
  55                        13.45       4.54       0.00       6.94       4.33       2.35       6.67        0.06     1.50   0.371
  56                        13.45       6.73       0.00       7.28       4.71       2.02       6.74        0.14     3.63   0.334
  57                        13.45       0.00       0.00       6.43       3.08       0.58       3.67        0.18     4.82   0.273
  59                        13.45       0.00       0.00       6.33       3.26       1.24       4.50        0.04     1.09   0.335
  60                        13.45       9.93       0.00       7.47       5.65       4.58      10.22        0.05     1.39   0.437
  61                        13.45       0.00       0.00       6.47       2.82       0.32       3.14        0.57    13.99   0.234
  64                        13.45       0.00       0.00       6.35       3.24       1.07       4.31        0.05     1.47   0.321
  
  
  ****************************
  Subcatchment Washoff Summary
  ****************************
  
  ------------------------------------------------------------------------------------------
                                 COD         NH3-N            TN            TP            SS
  Subcatchment                    kg            kg            kg            kg            kg
  ------------------------------------------------------------------------------------------
  1                           12.258         0.000         0.000         0.000         0.000
  2                            0.000         0.000         0.000         0.000         0.000
  3                            0.000         0.000         0.000         0.000         0.000
  35                          14.944         0.000         0.000         0.000         0.000
  36                          83.241         0.000         0.000         0.000         0.000
  40                          27.574         0.000         0.000         0.000         0.000
  41                          10.520         0.000         0.000         0.000         0.000
  42                          11.942         0.000         0.000         0.000         0.000
  43                           2.881         0.000         0.000         0.000         0.000
  44                          77.019         0.000         0.000         0.000         0.000
  45                           6.424         0.000         0.000         0.000         0.000
  46                          32.771         0.000         0.000         0.000         0.000
  47                           6.808         0.000         0.000         0.000         0.000
  48                          16.305         0.000         0.000         0.000         0.000
  55                          12.551         0.000         0.000         0.000         0.000
  56                          35.958         0.000         0.000         0.000         0.000
  57                          22.199         0.000         0.000         0.000         0.000
  59                           5.490         0.000         0.000         0.000         0.000
  60                          15.869         0.000         0.000         0.000         0.000
  61                          60.232         0.000         0.000         0.000         0.000
  64                           7.232         0.000         0.000         0.000         0.000
  ------------------------------------------------------------------------------------------
  System                     462.218         0.000         0.000         0.000         0.000
  
  
  ******************
  Node Depth Summary
  ******************
  
  ---------------------------------------------------------------------------------
                                 Average  Maximum  Maximum  Time of Max    Reported
                                   Depth    Depth      HGL   Occurrence   Max Depth
  Node                 Type       Meters   Meters   Meters  days hr:min      Meters
  ---------------------------------------------------------------------------------
  WS01000070           JUNCTION     0.00     0.00     0.00     0  00:00        0.00
  WS01000323           JUNCTION     0.00     0.00     0.00     0  00:00        0.00
  WS01000533           JUNCTION     0.00     0.00     6.86     0  00:00        0.00
  WS01005172           JUNCTION     0.00     0.00     0.00     0  00:00        0.00
  WS01005181           JUNCTION     0.00     0.00     0.00     0  00:00        0.00
  WS01009841           JUNCTION     0.00     0.00     0.00     0  00:00        0.00
  WS02000078           JUNCTION     0.00     0.00     0.00     0  00:00        0.00
  WS02000112           JUNCTION     0.00     0.00     0.00     0  00:00        0.00
  WS02000136           JUNCTION     0.00     0.00     0.00     0  00:00        0.00
  WS02004053           JUNCTION     0.00     0.00     0.00     0  00:00        0.00
  WS02004401           JUNCTION     2.05     2.31     8.31     0  03:01        2.31
  WS02005192           JUNCTION     0.35     0.45     8.32     0  03:01        0.45
  WS02005193           JUNCTION     0.39     0.50     8.32     0  03:01        0.49
  WS02005196           JUNCTION     0.36     0.47     8.32     0  03:01        0.47
  WS02006109           JUNCTION     1.45     1.70     8.32     0  03:00        1.70
  WS02006110           JUNCTION     1.47     1.72     8.32     0  03:00        1.72
  WS02006111           JUNCTION     1.48     1.73     8.31     0  03:00        1.73
  WS02006112           JUNCTION     1.93     2.19     8.31     0  03:00        2.19
  WS02006113           JUNCTION     1.48     1.73     8.32     0  03:00        1.73
  WS02006115           JUNCTION     1.95     2.21     8.31     0  03:01        2.21
  WS02006116           JUNCTION     2.01     2.27     8.31     0  03:01        2.27
  WS02006183           JUNCTION     0.00     0.00     0.00     0  00:00        0.00
  WS02006228           JUNCTION     1.42     1.67     8.32     0  03:00        1.67
  WS02006229           JUNCTION     1.38     1.63     8.32     0  03:01        1.63
  WS02006230           JUNCTION     1.33     1.57     8.32     0  03:01        1.57
  WS02006231           JUNCTION     1.19     1.42     8.32     0  03:01        1.42
  WS02006232           JUNCTION     1.07     1.29     8.32     0  03:01        1.29
  WS02006234           JUNCTION     0.96     1.16     8.32     0  03:00        1.16
  WS02006235           JUNCTION     0.95     1.15     8.32     0  03:00        1.15
  WS02006238           JUNCTION     0.94     1.14     8.32     0  03:00        1.14
  WS02006239           JUNCTION     0.91     1.11     8.32     0  03:00        1.11
  WS02006242           JUNCTION     0.84     1.01     8.31     0  03:00        1.01
  WS02006240           JUNCTION     0.84     1.03     8.32     0  03:00        1.03
  WS02006243           JUNCTION     0.73     0.89     8.31     0  03:00        0.89
  WS02006245           JUNCTION     0.67     0.82     8.31     0  03:00        0.82
  WS02006247           JUNCTION     0.65     0.80     8.31     0  03:00        0.80
  WS02006248           JUNCTION     0.58     0.72     8.31     0  03:01        0.72
  WS02006249           JUNCTION     0.57     0.71     8.31     0  03:01        0.71
  WS02006251           JUNCTION     0.51     0.64     8.31     0  03:01        0.64
  WS02006253           JUNCTION     0.40     0.51     8.31     0  03:01        0.51
  WS02618401           JUNCTION     0.00     0.00     0.00     0  00:00        0.00
  WSA1649              JUNCTION     0.00     0.00     0.00     0  00:00        0.00
  outfall-5            OUTFALL      0.07     0.12     7.79     0  03:01        0.12
  outfall-14           OUTFALL      0.06     0.11     7.77     0  03:01        0.11
  outfall-16           OUTFALL      0.00     0.00     8.39     0  00:00        0.00
  CC-storage           STORAGE      5.23     5.63     8.81     0  01:42        5.63
  
  
  *******************
  Node Inflow Summary
  *******************
  
  -------------------------------------------------------------------------------------------------
                                  Maximum  Maximum                  Lateral       Total        Flow
                                  Lateral    Total  Time of Max      Inflow      Inflow     Balance
                                   Inflow   Inflow   Occurrence      Volume      Volume       Error
  Node                 Type           MLD      MLD  days hr:min    10^6 ltr    10^6 ltr     Percent
  -------------------------------------------------------------------------------------------------
  WS01000070           JUNCTION      0.00     0.00     0  00:00           0           0       0.000 ltr
  WS01000323           JUNCTION      0.00     0.00     0  00:00           0           0       0.000 ltr
  WS01000533           JUNCTION      0.00     0.00     0  00:00           0           0       0.000 ltr
  WS01005172           JUNCTION      0.00     0.00     0  00:00           0           0       0.000 ltr
  WS01005181           JUNCTION      0.00     0.00     0  00:00           0           0       0.000 ltr
  WS01009841           JUNCTION      0.00     0.00     0  00:00           0           0       0.000 ltr
  WS02000078           JUNCTION      0.00     0.00     0  00:00           0           0       0.000 ltr
  WS02000112           JUNCTION      0.00     0.00     0  00:00           0           0       0.000 ltr
  WS02000136           JUNCTION      0.00     0.00     0  00:00           0           0       0.000 ltr
  WS02004053           JUNCTION      0.00     0.00     0  00:00           0           0       0.000 ltr
  WS02004401           JUNCTION      0.05    11.86     0  03:01      0.0086       0.478       6.207
  WS02005192           JUNCTION      4.91     4.91     0  03:01         0.2         0.2       1.167
  WS02005193           JUNCTION      0.09     5.07     0  03:01       0.014       0.228       3.014
  WS02005196           JUNCTION      0.12     5.01     0  03:01      0.0183       0.217       2.865
  WS02006109           JUNCTION      0.08     6.26     0  03:01      0.0129       0.407       6.437
  WS02006110           JUNCTION      0.08     6.34     0  03:01      0.0126       0.396       6.735
  WS02006111           JUNCTION      0.24    11.39     0  03:01      0.0352        0.53       4.133
  WS02006112           JUNCTION      0.18    11.54     0  03:01      0.0263       0.532       6.653
  WS02006113           JUNCTION      5.04    11.19     0  03:01       0.212       0.551       4.571
  WS02006115           JUNCTION      0.08    11.61     0  03:01      0.0129       0.514       8.087
  WS02006116           JUNCTION      0.24    11.81     0  03:01      0.0347       0.513       7.461
  WS02006183           JUNCTION      0.00     0.00     0  00:00           0           0       0.000 ltr
  WS02006228           JUNCTION      6.38     6.38     0  03:04       0.318       0.476       4.012
  WS02006229           JUNCTION      0.13     3.72     0  02:12      0.0193       0.246       7.106
  WS02006230           JUNCTION      0.07     3.68     0  02:13      0.0111       0.256      10.861
  WS02006231           JUNCTION      0.13     3.57     0  02:05      0.0197       0.262       6.189
  WS02006232           JUNCTION      3.54     4.54     0  02:05       0.142       0.384       4.202
  WS02006234           JUNCTION      0.14     4.66     0  02:05      0.0208       0.378       3.849
  WS02006235           JUNCTION      0.14     4.82     0  02:05      0.0215       0.373       2.266
  WS02006238           JUNCTION      0.15     4.92     0  02:05      0.0226       0.372       2.857
  WS02006239           JUNCTION      0.11     4.89     0  02:05      0.0167        0.37       4.338
  WS02006242           JUNCTION      0.08     4.97     0  02:17      0.0124       0.368       5.266
  WS02006240           JUNCTION      0.06     4.87     0  02:17     0.00952       0.366       4.688
  WS02006243           JUNCTION      0.17     5.11     0  02:17      0.0259       0.373       4.827
  WS02006245           JUNCTION      0.07     5.13     0  02:17      0.0109        0.36       3.801
  WS02006247           JUNCTION      2.96     7.80     0  03:01       0.141       0.468       2.479
  WS02006248           JUNCTION      0.12    14.69     0  03:01      0.0185       0.674       1.558
  WS02006249           JUNCTION      0.19     6.92     0  03:02      0.0275       0.334       4.396
  WS02006251           JUNCTION      1.56     6.70     0  03:01      0.0647       0.309       4.662
  WS02006253           JUNCTION      0.11     5.18     0  03:01      0.0166       0.243       2.878
  WS02618401           JUNCTION      0.00     0.00     0  00:00           0           0       0.000 ltr
  WSA1649              JUNCTION      0.00     0.00     0  00:00           0           0       0.000 ltr
  outfall-5            OUTFALL       0.00    14.69     0  03:01           0       0.557       0.000
  outfall-14           OUTFALL       0.00    11.86     0  03:01           0       0.444       0.000
  outfall-16           OUTFALL       0.00     0.00     0  00:00           0           0       0.000 ltr
  CC-storage           STORAGE      15.45    15.45     0  03:01       0.841       0.841       0.010
  
  
  **********************
  Node Surcharge Summary
  **********************
  
  Surcharging occurs when water rises above the top of the highest conduit.
  ---------------------------------------------------------------------
                                               Max. Height   Min. Depth
                                   Hours       Above Crown    Below Rim
  Node                 Type      Surcharged         Meters       Meters
  ---------------------------------------------------------------------
  WS01000070           JUNCTION        3.83          0.000        0.000
  WS01000323           JUNCTION        3.83          0.000        0.000
  WS01000533           JUNCTION        3.83          0.000        2.147
  WS01005172           JUNCTION        3.83          0.000        0.000
  WS01005181           JUNCTION        3.83          0.000        0.000
  WS01009841           JUNCTION        3.83          0.000        0.000
  WS02000078           JUNCTION        3.83          0.000        0.000
  WS02000112           JUNCTION        3.83          0.000        0.000
  WS02000136           JUNCTION        3.83          0.000        0.000
  WS02004053           JUNCTION        3.83          0.000        0.000
  WS02006109           JUNCTION        2.09          0.900        0.938
  WS02006110           JUNCTION        2.11          0.919        0.926
  WS02006111           JUNCTION        2.12          0.934        0.943
  WS02006112           JUNCTION        2.39          1.191        0.492
  WS02006113           JUNCTION        2.11          0.928        1.005
  WS02006115           JUNCTION        2.42          1.209        1.090
  WS02006116           JUNCTION        2.51          1.268        1.082
  WS02006183           JUNCTION        3.83          0.000        0.000
  WS02006228           JUNCTION        2.07          0.870        1.361
  WS02006229           JUNCTION        2.03          0.829        1.625
  WS02006231           JUNCTION        1.96          0.719        0.824
  WS02006232           JUNCTION        1.86          0.589        0.900
  WS02006234           JUNCTION        1.76          0.458        0.799
  WS02006235           JUNCTION        1.76          0.448        0.846
  WS02006238           JUNCTION        1.75          0.438        0.996
  WS02006239           JUNCTION        1.73          0.407        0.922
  WS02006242           JUNCTION        1.67          0.315        0.534
  WS02006240           JUNCTION        1.67          0.326        1.077
  WS02006243           JUNCTION        1.59          0.193        0.587
  WS02006245           JUNCTION        1.57          0.122        0.733
  WS02006247           JUNCTION        1.56          0.101        0.659
  WS02006249           JUNCTION        0.15          0.011        0.377
  WS02618401           JUNCTION        3.83          0.000        0.000
  WSA1649              JUNCTION        3.83          0.000        0.000
  
  
  *********************
  Node Flooding Summary
  *********************
  
  Flooding refers to all water that overflows a node, whether it ponds or not.
  --------------------------------------------------------------------------
                                                             Total   Maximum
                                 Maximum   Time of Max       Flood    Ponded
                        Hours       Rate    Occurrence      Volume     Depth
  Node                 Flooded       MLD   days hr:min    10^6 ltr    Meters
  --------------------------------------------------------------------------
  CC-storage              2.13     15.45      0  03:01       0.682     0.000
  
  
  **********************
  Storage Volume Summary
  **********************
  
  --------------------------------------------------------------------------------------------------
                         Average     Avg  Evap Exfil       Maximum     Max    Time of Max    Maximum
                          Volume    Pcnt  Pcnt  Pcnt        Volume    Pcnt     Occurrence    Outflow
  Storage Unit           1000 m3    Full  Loss  Loss       1000 m3    Full    days hr:min        MLD
  --------------------------------------------------------------------------------------------------
  CC-storage               0.148      93     0     0         0.159     100       0  01:42       0.00
  
  
  ***********************
  Outfall Loading Summary
  ***********************
  
  ---------------------------------------------------------------------------------------------------------------------------------
                         Flow       Avg       Max       Total         Total         Total         Total         Total         Total
                         Freq      Flow      Flow      Volume           COD         NH3-N            TN            TP            SS
  Outfall Node           Pcnt       MLD       MLD    10^6 ltr            kg            kg            kg            kg            kg
  ---------------------------------------------------------------------------------------------------------------------------------
  outfall-5             80.72      8.78     14.69       0.557        74.035         0.000         0.000         0.000         0.000
  outfall-14            80.67      7.01     11.86       0.444        54.858         0.000         0.000         0.000         0.000
  outfall-16             0.00      0.00      0.00       0.000         0.000         0.000         0.000         0.000         0.000
  ---------------------------------------------------------------------------------------------------------------------------------
  System                53.79     15.79     26.52       1.001       128.892         0.000         0.000         0.000         0.000
  
  
  ********************
  Link Flow Summary
  ********************
  
  -----------------------------------------------------------------------------
                                 Maximum  Time of Max   Maximum    Max/    Max/
                                  |Flow|   Occurrence   |Veloc|    Full    Full
  Link                 Type          MLD  days hr:min     m/sec    Flow   Depth
  -----------------------------------------------------------------------------
  WSL2038              CONDUIT      4.90     0  03:01      0.47    0.24    0.76
  WSL2039              CONDUIT      5.09     0  03:01      0.71    0.26    0.84
  WSL2041              CONDUIT      4.99     0  03:01      0.52    0.24    0.80
  WSL2294              CONDUIT      6.26     0  03:01      0.43    0.21    1.00
  WSL2295              CONDUIT      6.34     0  03:01      0.50    0.28    1.00
  WSL2296              CONDUIT     11.39     0  03:01      0.63    0.06    1.00
  WSL2297              CONDUIT     11.54     0  03:01      0.34    0.22    1.00
  WSL2298              CONDUIT     11.19     0  03:01      0.87    0.52    1.00
  WSL2301              CONDUIT     11.62     0  03:01      0.29    0.11    1.00
  WSL2302              CONDUIT     11.81     0  03:01      0.23    0.14    1.00
  WSL2441              CONDUIT      6.18     0  03:01      0.44    0.16    1.00
  WSL2442              CONDUIT      3.61     0  02:13      0.63    0.09    1.00
  WSL2443              CONDUIT      3.45     0  02:05      0.73    0.05    1.00
  WSL2444              CONDUIT      3.53     0  02:05      0.87    0.06    1.00
  WSL2446              CONDUIT      4.53     0  02:05      0.83    0.08    1.00
  WSL2447              CONDUIT      4.69     0  02:05      0.69    0.24    1.00
  WSL2448              CONDUIT      4.78     0  02:05      0.55    0.13    1.00
  WSL2449              CONDUIT      4.79     0  02:05      0.53    0.17    1.00
  WSL2450              CONDUIT      4.82     0  02:17      0.61    0.10    1.00
  WSL2451              CONDUIT      4.90     0  02:17      0.59    0.32    1.00
  WSL2452              CONDUIT      4.96     0  02:17      0.60    0.09    1.00
  WSL2454              CONDUIT      5.06     0  02:17      0.75    0.12    1.00
  WSL2478              CONDUIT      5.33     0  02:17      0.64    0.19    1.00
  WSL2479              CONDUIT      7.81     0  03:01      0.58    0.15    1.00
  WSL2480              CONDUIT      6.95     0  03:02      0.62    0.32    1.00
  WSL2482              CONDUIT      6.77     0  03:02      0.54    0.18    0.96
  WSL2484              CONDUIT      5.23     0  03:01      0.64    0.07    0.83
  WSL2493              CONDUIT      3.61     0  02:12      0.51    0.06    1.00
  8                    CONDUIT     14.69     0  03:01      5.40    0.19    0.30
  19                   CONDUIT      0.00     0  00:00      0.00    0.00    0.00
  17                   CONDUIT     11.86     0  03:01      5.14    0.15    0.27
  CC-Pump-1            PUMP         0.00     0  00:00              0.00
  CC-Pump-2            PUMP         0.00     0  00:00              0.00
  
  
  ***************************
  Flow Classification Summary
  ***************************
  
  -------------------------------------------------------------------------------------
                      Adjusted    ---------- Fraction of Time in Flow Class ---------- 
                       /Actual         Up    Down  Sub   Sup   Up    Down  Norm  Inlet 
  Conduit               Length    Dry  Dry   Dry   Crit  Crit  Crit  Crit  Ltd   Ctrl  
  -------------------------------------------------------------------------------------
  WSL2038                 1.00   0.00  0.00  0.00  1.00  0.00  0.00  0.00  0.01  0.00
  WSL2039                 1.00   0.00  0.00  0.00  1.00  0.00  0.00  0.00  0.00  0.00
  WSL2041                 1.00   0.00  0.00  0.00  1.00  0.00  0.00  0.00  0.35  0.00
  WSL2294                 1.00   0.00  0.00  0.00  1.00  0.00  0.00  0.00  0.00  0.00
  WSL2295                 1.00   0.00  0.00  0.00  1.00  0.00  0.00  0.00  0.00  0.00
  WSL2296                 1.00   0.00  0.00  0.00  1.00  0.00  0.00  0.00  0.17  0.00
  WSL2297                 1.00   0.00  0.00  0.00  1.00  0.00  0.00  0.00  0.00  0.00
  WSL2298                 1.00   0.00  0.00  0.00  0.97  0.03  0.00  0.00  0.00  0.00
  WSL2301                 1.00   0.00  0.00  0.00  1.00  0.00  0.00  0.00  0.04  0.00
  WSL2302                 1.00   0.00  0.00  0.00  1.00  0.00  0.00  0.00  0.01  0.00
  WSL2441                 1.00   0.00  0.00  0.00  1.00  0.00  0.00  0.00  0.00  0.00
  WSL2442                 1.00   0.00  0.00  0.00  1.00  0.00  0.00  0.00  0.17  0.00
  WSL2443                 1.00   0.00  0.00  0.00  1.00  0.00  0.00  0.00  0.31  0.00
  WSL2444                 1.00   0.00  0.00  0.00  0.91  0.09  0.00  0.00  0.25  0.00
  WSL2446                 1.00   0.00  0.00  0.00  0.90  0.10  0.00  0.00  0.03  0.00
  WSL2447                 1.00   0.00  0.00  0.00  1.00  0.00  0.00  0.00  0.00  0.00
  WSL2448                 1.00   0.00  0.00  0.00  1.00  0.00  0.00  0.00  0.00  0.00
  WSL2449                 1.00   0.00  0.00  0.00  1.00  0.00  0.00  0.00  0.03  0.00
  WSL2450                 1.00   0.00  0.00  0.00  1.00  0.00  0.00  0.00  0.45  0.00
  WSL2451                 1.00   0.00  0.00  0.00  1.00  0.00  0.00  0.00  0.00  0.00
  WSL2452                 1.00   0.00  0.00  0.00  1.00  0.00  0.00  0.00  0.47  0.00
  WSL2454                 1.00   0.00  0.00  0.00  1.00  0.00  0.00  0.00  0.02  0.00
  WSL2478                 1.00   0.00  0.00  0.00  1.00  0.00  0.00  0.00  0.00  0.00
  WSL2479                 1.00   0.00  0.00  0.00  1.00  0.00  0.00  0.00  0.51  0.00
  WSL2480                 1.00   0.00  0.00  0.00  1.00  0.00  0.00  0.00  0.00  0.00
  WSL2482                 1.00   0.00  0.00  0.00  1.00  0.00  0.00  0.00  0.53  0.00
  WSL2484                 1.00   0.00  0.00  0.00  1.00  0.00  0.00  0.00  0.53  0.00
  WSL2493                 1.00   0.00  0.00  0.00  1.00  0.00  0.00  0.00  0.05  0.00
  8                       1.00   0.19  0.00  0.00  0.00  0.81  0.00  0.00  0.01  0.00
  19                      1.00   1.00  0.00  0.00  0.00  0.00  0.00  0.00  0.00  0.00
  17                      1.00   0.19  0.00  0.00  0.00  0.81  0.00  0.00  0.00  0.00
  
  
  *************************
  Conduit Surcharge Summary
  *************************
  
  ----------------------------------------------------------------------------
                                                           Hours        Hours 
                         --------- Hours Full --------   Above Full   Capacity
  Conduit                Both Ends  Upstream  Dnstream   Normal Flow   Limited
  ----------------------------------------------------------------------------
  WSL2294                     2.09      2.09      2.11      0.01         0.01
  WSL2295                     2.11      2.11      2.11      0.01         0.01
  WSL2296                     2.12      2.12      2.74      0.01         0.01
  WSL2297                     2.39      2.39      2.42      0.01         0.01
  WSL2298                     2.11      2.11      2.12      0.01         0.01
  WSL2301                     2.42      2.42      2.51      0.01         0.01
  WSL2302                     2.51      2.51      2.59      0.01         0.01
  WSL2441                     2.07      2.07      2.09      0.01         0.01
  WSL2442                     2.07      2.07      2.11      0.01         0.01
  WSL2443                     1.96      1.96      2.07      0.01         0.01
  WSL2444                     1.86      1.86      1.96      0.01         0.01
  WSL2446                     1.76      1.76      1.86      0.01         0.01
  WSL2447                     1.76      1.76      1.76      0.01         0.01
  WSL2448                     1.75      1.75      1.76      0.01         0.01
  WSL2449                     1.73      1.73      1.75      0.01         0.01
  WSL2450                     1.67      1.67      1.73      0.01         0.01
  WSL2451                     1.67      1.67      1.67      0.01         0.01
  WSL2452                     1.59      1.59      1.67      0.01         0.01
  WSL2454                     1.57      1.57      1.59      0.01         0.01
  WSL2478                     1.56      1.56      1.57      0.01         0.01
  WSL2479                     0.36      0.36      1.56      0.01         0.01
  WSL2480                     0.15      0.15      0.36      0.01         0.01
  WSL2482                     0.01      0.01      0.15      0.01         0.01
  WSL2493                     2.03      2.03      2.07      0.01         0.01
  
  
  ***************
  Pumping Summary
  ***************
  
  ---------------------------------------------------------------------------------------------------------
                                                  Min       Avg       Max     Total     Power    % Time Off
                        Percent   Number of      Flow      Flow      Flow    Volume     Usage    Pump Curve
  Pump                 Utilized   Start-Ups       MLD       MLD       MLD  10^6 ltr     Kw-hr    Low   High
  ---------------------------------------------------------------------------------------------------------
  CC-Pump-1                0.00           0      0.00      0.00      0.00     0.000      0.00    0.0    0.0
  CC-Pump-2                0.00           0      0.00      0.00      0.00     0.000      0.00    0.0    0.0
  
  
  ***************************
  Link Pollutant Load Summary
  ***************************
  
  ------------------------------------------------------------------------------------------
                                 COD         NH3-N            TN            TP            SS
  Link                            kg            kg            kg            kg            kg
  ------------------------------------------------------------------------------------------
  WSL2038                     24.958         0.000         0.000         0.000         0.000
  WSL2039                     30.002         0.000         0.000         0.000         0.000
  WSL2041                     27.756         0.000         0.000         0.000         0.000
  WSL2294                     73.272         0.000         0.000         0.000         0.000
  WSL2295                     65.574         0.000         0.000         0.000         0.000
  WSL2296                     65.011         0.000         0.000         0.000         0.000
  WSL2297                     62.690         0.000         0.000         0.000         0.000
  WSL2298                     62.460         0.000         0.000         0.000         0.000
  WSL2301                     60.428         0.000         0.000         0.000         0.000
  WSL2302                     60.210         0.000         0.000         0.000         0.000
  WSL2441                     79.667         0.000         0.000         0.000         0.000
  WSL2442                     45.629         0.000         0.000         0.000         0.000
  WSL2443                     43.671         0.000         0.000         0.000         0.000
  WSL2444                     42.538         0.000         0.000         0.000         0.000
  WSL2446                     41.867         0.000         0.000         0.000         0.000
  WSL2447                     41.207         0.000         0.000         0.000         0.000
  WSL2448                     40.812         0.000         0.000         0.000         0.000
  WSL2449                     40.243         0.000         0.000         0.000         0.000
  WSL2450                     39.955         0.000         0.000         0.000         0.000
  WSL2451                     39.802         0.000         0.000         0.000         0.000
  WSL2452                     40.185         0.000         0.000         0.000         0.000
  WSL2454                     39.739         0.000         0.000         0.000         0.000
  WSL2478                     39.436         0.000         0.000         0.000         0.000
  WSL2479                     50.309         0.000         0.000         0.000         0.000
  WSL2480                     49.371         0.000         0.000         0.000         0.000
  WSL2482                     45.600         0.000         0.000         0.000         0.000
  WSL2484                     32.765         0.000         0.000         0.000         0.000
  WSL2493                     45.911         0.000         0.000         0.000         0.000
  8                           74.035         0.000         0.000         0.000         0.000
  19                           0.000         0.000         0.000         0.000         0.000
  17                          54.858         0.000         0.000         0.000         0.000
  CC-Pump-1                    0.000         0.000         0.000         0.000         0.000
  CC-Pump-2                    0.000         0.000         0.000         0.000         0.000
  

  Analysis begun on:  Tue Dec 17 09:48:07 2019
  Analysis ended on:  Tue Dec 17 09:48:07 2019
  Total elapsed time: < 1 sec