
  EPA STORM WATER MANAGEMENT MODEL - VERSION 5.1 (Build 5.3.0.dev0)
  --------------------------------------------------------------

  
  *********************************************************
  NOTE: The summary statistics displayed in this report are
  based on results found at every computational time step,  
  not just on results from each reporting time step.
  *********************************************************
  
  ****************
  Analysis Options
  ****************
  Flow Units ............... MLD
  Process Models:
    Rainfall/Runoff ........ YES
    RDII ................... NO
    Snowmelt ............... NO
    Groundwater ............ NO
    Flow Routing ........... YES
    Ponding Allowed ........ NO
    Water Quality .......... YES
  Infiltration Method ...... GREEN_AMPT
  Flow Routing Method ...... DYNWAVE
  Surcharge Method ......... EXTRAN
  Starting Date ............ 08/28/2015 08:00:00
  Ending Date .............. 08/28/2015 11:50:00
  Antecedent Dry Days ...... 4.0
  Report Time Step ......... 00:01:00
  Wet Time Step ............ 00:01:00
  Dry Time Step ............ 00:01:00
  Routing Time Step ........ 5.00 sec
  Variable Time Step ....... YES
  Maximum Trials ........... 8
  Number of Threads ........ 1
  Head Tolerance ........... 0.001500 m
  
  
  **************************        Volume         Depth
  Runoff Quantity Continuity     hectare-m            mm
  **************************     ---------       -------
  Total Precipitation ......         0.752        12.164
  Evaporation Loss .........         0.000         0.000
  Infiltration Loss ........         0.409         6.614
  Surface Runoff ...........         0.135         2.185
  Final Storage ............         0.208         3.365
  Continuity Error (%) .....        -0.008
  
  
  **************************           COD         NH3-N            TN            TP            SS
  Runoff Quality Continuity             kg            kg            kg            kg            kg
  **************************    ----------    ----------    ----------    ----------    ----------
  Initial Buildup ..........      2504.640         0.000         0.000         0.000         0.000
  Surface Buildup ..........        19.924         0.000         0.000         0.000         0.000
  Wet Deposition ...........         0.000         0.000         0.000         0.000         0.000
  Sweeping Removal .........         0.000         0.000         0.000         0.000         0.000
  Infiltration Loss ........        41.796         0.000         0.000         0.000         0.000
  BMP Removal ..............         0.000         0.000         0.000         0.000         0.000
  Surface Runoff ...........       137.366         0.000         0.000         0.000         0.000
  Remaining Buildup ........      2344.917         0.000         0.000         0.000         0.000
  Continuity Error (%) .....         0.019         0.000         0.000         0.000         0.000
  
  
  **************************        Volume        Volume
  Flow Routing Continuity        hectare-m      10^6 ltr
  **************************     ---------     ---------
  Dry Weather Inflow .......         0.000         0.000
  Wet Weather Inflow .......         0.135         1.349
  Groundwater Inflow .......         0.000         0.000
  RDII Inflow ..............         0.000         0.000
  External Inflow ..........         0.082         0.822
  External Outflow .........         0.089         0.888
  Flooding Loss ............         0.062         0.622
  Evaporation Loss .........         0.000         0.000
  Exfiltration Loss ........         0.000         0.000
  Initial Stored Volume ....         0.000         0.000
  Final Stored Volume ......         0.062         0.618
  Continuity Error (%) .....         1.954
  
  
  **************************           COD         NH3-N            TN            TP            SS
  Quality Routing Continuity            kg            kg            kg            kg            kg
  **************************    ----------    ----------    ----------    ----------    ----------
  Dry Weather Inflow .......         0.000         0.000         0.000         0.000         0.000
  Wet Weather Inflow .......       137.063         0.000         0.000         0.000         0.000
  Groundwater Inflow .......         0.000         0.000         0.000         0.000         0.000
  RDII Inflow ..............         0.000         0.000         0.000         0.000         0.000
  External Inflow ..........       137.264         0.000         0.000         0.000         0.000
  External Outflow .........       107.884         0.000         0.000         0.000         0.000
  Flooding Loss ............        73.487         0.000         0.000         0.000         0.000
  Exfiltration Loss ........         0.000         0.000         0.000         0.000         0.000
  Mass Reacted .............         0.000         0.000         0.000         0.000         0.000
  Initial Stored Mass ......         0.000         0.000         0.000         0.000         0.000
  Final Stored Mass ........        85.463         0.000         0.000         0.000         0.000
  Continuity Error (%) .....         2.732         0.000         0.000         0.000         0.000
  
  
  *************************
  Highest Continuity Errors
  *************************
  Node WS02006230 (9.83%)
  Node WS02006115 (8.27%)
  Node WS02006116 (7.67%)
  Node WS02006112 (6.91%)
  Node WS02006110 (6.85%)
  
  
  ***************************
  Time-Step Critical Elements
  ***************************
  Link 8 (80.92%)
  Link WSL2448 (15.32%)
  
  
  ********************************
  Highest Flow Instability Indexes
  ********************************
  Link WSL2302 (4)
  Link WSL2301 (4)
  Link WSL2297 (3)
  Link WSL2296 (3)
  Link WSL2298 (3)
  
  
  *************************
  Routing Time Step Summary
  *************************
  Minimum Time Step           :     0.10 sec
  Average Time Step           :     1.38 sec
  Maximum Time Step           :     5.00 sec
  Percent in Steady State     :    -0.00
  Average Iterations per Step :     2.07
  Percent Not Converging      :     0.35
  
  
  ***************************
  Subcatchment Runoff Summary
  ***************************
  
  ------------------------------------------------------------------------------------------------------------------------------
                            Total      Total      Total      Total     Imperv       Perv      Total       Total     Peak  Runoff
                           Precip      Runon       Evap      Infil     Runoff     Runoff     Runoff      Runoff   Runoff   Coeff
  Subcatchment                 mm         mm         mm         mm         mm         mm         mm    10^6 ltr      MLD
  ------------------------------------------------------------------------------------------------------------------------------
  1                         12.16      10.35       0.00       7.62       5.30       3.12       8.42        0.10     1.92   0.374
  2                         12.16       0.00       0.00       6.35       2.84       0.53       3.37        0.11     2.16   0.277
  3                         12.16       0.00       0.00       6.37       2.79       0.44       3.23        0.16     3.10   0.266
  35                        12.16       0.00       0.00       6.35       2.85       0.56       3.41        0.10     1.96   0.280
  36                        12.16       6.39       0.00       7.35       4.18       1.15       5.33        0.31     5.83   0.287
  40                        12.16       1.77       0.00       6.65       3.22       0.71       3.93        0.15     2.90   0.282
  41                        12.16       0.00       0.00       6.32       2.89       0.68       3.57        0.07     1.33   0.294
  42                        12.16       0.00       0.00       6.33       2.88       0.63       3.51        0.08     1.53   0.289
  43                        12.16       0.00       0.00       6.20       2.99       1.31       4.29        0.02     0.32   0.353
  44                        12.16      88.77       0.00      11.92      24.52      44.78      69.31        0.26     4.74   0.687
  45                        12.16       0.00       0.00       6.29       2.94       0.88       3.82        0.04     0.77   0.314
  46                        12.16       5.33       0.00       7.13       4.10       1.55       5.66        0.12     2.30   0.324
  47                        12.16       0.00       0.00       6.29       2.93       0.85       3.79        0.04     0.83   0.311
  48                        12.16       2.66       0.00       6.74       3.53       1.22       4.74        0.07     1.45   0.320
  55                        12.16       3.94       0.00       6.86       3.88       1.89       5.77        0.05     0.94   0.358
  56                        12.16       5.87       0.00       7.20       4.22       1.65       5.87        0.13     2.39   0.326
  57                        12.16       0.00       0.00       6.36       2.79       0.45       3.24        0.16     3.04   0.266
  59                        12.16       0.00       0.00       6.27       2.95       0.95       3.90        0.03     0.65   0.321
  60                        12.16       8.65       0.00       7.39       5.04       3.79       8.82        0.05     0.91   0.424
  61                        12.16       0.00       0.00       6.40       2.56       0.25       2.81        0.51     9.38   0.231
  64                        12.16       0.00       0.00       6.30       2.93       0.83       3.76        0.05     0.88   0.309
  
  
  ****************************
  Subcatchment Washoff Summary
  ****************************
  
  ------------------------------------------------------------------------------------------
                                 COD         NH3-N            TN            TP            SS
  Subcatchment                    kg            kg            kg            kg            kg
  ------------------------------------------------------------------------------------------
  1                            8.754         0.000         0.000         0.000         0.000
  2                            0.000         0.000         0.000         0.000         0.000
  3                            0.000         0.000         0.000         0.000         0.000
  35                          10.452         0.000         0.000         0.000         0.000
  36                          60.098         0.000         0.000         0.000         0.000
  40                          19.472         0.000         0.000         0.000         0.000
  41                           7.279         0.000         0.000         0.000         0.000
  42                           8.296         0.000         0.000         0.000         0.000
  43                           1.915         0.000         0.000         0.000         0.000
  44                          60.504         0.000         0.000         0.000         0.000
  45                           4.376         0.000         0.000         0.000         0.000
  46                          23.130         0.000         0.000         0.000         0.000
  47                           4.645         0.000         0.000         0.000         0.000
  48                          11.317         0.000         0.000         0.000         0.000
  55                           8.677         0.000         0.000         0.000         0.000
  56                          25.594         0.000         0.000         0.000         0.000
  57                          15.707         0.000         0.000         0.000         0.000
  59                           3.721         0.000         0.000         0.000         0.000
  60                          11.521         0.000         0.000         0.000         0.000
  61                          43.725         0.000         0.000         0.000         0.000
  64                           4.944         0.000         0.000         0.000         0.000
  ------------------------------------------------------------------------------------------
  System                     334.125         0.000         0.000         0.000         0.000
  
  
  ******************
  Node Depth Summary
  ******************
  
  ---------------------------------------------------------------------------------
                                 Average  Maximum  Maximum  Time of Max    Reported
                                   Depth    Depth      HGL   Occurrence   Max Depth
  Node                 Type       Meters   Meters   Meters  days hr:min      Meters
  ---------------------------------------------------------------------------------
  WS01000070           JUNCTION     0.00     0.00     0.00     0  00:00        0.00
  WS01000323           JUNCTION     0.00     0.00     0.00     0  00:00        0.00
  WS01000533           JUNCTION     0.00     0.00     6.86     0  00:00        0.00
  WS01005172           JUNCTION     0.00     0.00     0.00     0  00:00        0.00
  WS01005181           JUNCTION     0.00     0.00     0.00     0  00:00        0.00
  WS01009841           JUNCTION     0.00     0.00     0.00     0  00:00        0.00
  WS02000078           JUNCTION     0.00     0.00     0.00     0  00:00        0.00
  WS02000112           JUNCTION     0.00     0.00     0.00     0  00:00        0.00
  WS02000136           JUNCTION     0.00     0.00     0.00     0  00:00        0.00
  WS02004053           JUNCTION     0.00     0.00     0.00     0  00:00        0.00
  WS02004401           JUNCTION     2.05     2.29     8.29     0  03:01        2.29
  WS02005192           JUNCTION     0.34     0.44     8.31     0  02:13        0.43
  WS02005193           JUNCTION     0.39     0.48     8.30     0  02:13        0.48
  WS02005196           JUNCTION     0.36     0.45     8.30     0  02:13        0.44
  WS02006109           JUNCTION     1.45     1.68     8.30     0  03:00        1.67
  WS02006110           JUNCTION     1.47     1.70     8.30     0  03:00        1.69
  WS02006111           JUNCTION     1.48     1.71     8.29     0  03:00        1.71
  WS02006112           JUNCTION     1.93     2.17     8.29     0  03:00        2.17
  WS02006113           JUNCTION     1.48     1.71     8.30     0  03:00        1.70
  WS02006115           JUNCTION     1.95     2.19     8.29     0  03:00        2.19
  WS02006116           JUNCTION     2.01     2.25     8.29     0  03:00        2.25
  WS02006183           JUNCTION     0.00     0.00     0.00     0  00:00        0.00
  WS02006228           JUNCTION     1.42     1.65     8.30     0  03:00        1.65
  WS02006229           JUNCTION     1.38     1.61     8.30     0  03:00        1.61
  WS02006230           JUNCTION     1.33     1.55     8.30     0  03:00        1.55
  WS02006231           JUNCTION     1.19     1.40     8.30     0  03:00        1.40
  WS02006232           JUNCTION     1.07     1.27     8.30     0  03:00        1.27
  WS02006234           JUNCTION     0.96     1.14     8.30     0  03:00        1.13
  WS02006235           JUNCTION     0.95     1.13     8.30     0  03:00        1.12
  WS02006238           JUNCTION     0.94     1.12     8.30     0  03:00        1.11
  WS02006239           JUNCTION     0.91     1.08     8.29     0  03:00        1.08
  WS02006242           JUNCTION     0.84     0.99     8.29     0  03:00        0.99
  WS02006240           JUNCTION     0.84     1.00     8.29     0  03:00        1.00
  WS02006243           JUNCTION     0.73     0.87     8.29     0  03:00        0.87
  WS02006245           JUNCTION     0.67     0.80     8.29     0  03:00        0.80
  WS02006247           JUNCTION     0.65     0.78     8.29     0  03:00        0.78
  WS02006248           JUNCTION     0.58     0.70     8.29     0  03:01        0.70
  WS02006249           JUNCTION     0.57     0.69     8.29     0  03:01        0.69
  WS02006251           JUNCTION     0.51     0.62     8.29     0  03:01        0.62
  WS02006253           JUNCTION     0.40     0.49     8.29     0  02:13        0.49
  WS02618401           JUNCTION     0.00     0.00     0.00     0  00:00        0.00
  WSA1649              JUNCTION     0.00     0.00     0.00     0  00:00        0.00
  outfall-5            OUTFALL      0.07     0.10     7.77     0  03:01        0.10
  outfall-14           OUTFALL      0.06     0.09     7.75     0  03:01        0.09
  outfall-16           OUTFALL      0.00     0.00     8.39     0  00:00        0.00
  CC-storage           STORAGE      5.23     5.63     8.81     0  01:39        5.63
  
  
  *******************
  Node Inflow Summary
  *******************
  
  -------------------------------------------------------------------------------------------------
                                  Maximum  Maximum                  Lateral       Total        Flow
                                  Lateral    Total  Time of Max      Inflow      Inflow     Balance
                                   Inflow   Inflow   Occurrence      Volume      Volume       Error
  Node                 Type           MLD      MLD  days hr:min    10^6 ltr    10^6 ltr     Percent
  -------------------------------------------------------------------------------------------------
  WS01000070           JUNCTION      0.00     0.00     0  00:00           0           0       0.000 ltr
  WS01000323           JUNCTION      0.00     0.00     0  00:00           0           0       0.000 ltr
  WS01000533           JUNCTION      0.00     0.00     0  00:00           0           0       0.000 ltr
  WS01005172           JUNCTION      0.00     0.00     0  00:00           0           0       0.000 ltr
  WS01005181           JUNCTION      0.00     0.00     0  00:00           0           0       0.000 ltr
  WS01009841           JUNCTION      0.00     0.00     0  00:00           0           0       0.000 ltr
  WS02000078           JUNCTION      0.00     0.00     0  00:00           0           0       0.000 ltr
  WS02000112           JUNCTION      0.00     0.00     0  00:00           0           0       0.000 ltr
  WS02000136           JUNCTION      0.00     0.00     0  00:00           0           0       0.000 ltr
  WS02004053           JUNCTION      0.00     0.00     0  00:00           0           0       0.000 ltr
  WS02004401           JUNCTION      0.05     8.47     0  03:01      0.0086       0.424       7.036
  WS02005192           JUNCTION      3.14     3.14     0  03:01       0.179       0.179       1.280
  WS02005193           JUNCTION      0.09     3.33     0  03:01       0.014       0.206       3.288
  WS02005196           JUNCTION      0.12     3.24     0  03:01      0.0183       0.195       3.136
  WS02006109           JUNCTION      0.08     4.56     0  03:01      0.0129       0.372       7.028
  WS02006110           JUNCTION      0.08     4.64     0  03:01      0.0126       0.362       7.354
  WS02006111           JUNCTION      0.24     8.00     0  03:01      0.0352       0.474       4.594
  WS02006112           JUNCTION      0.18     8.15     0  03:01      0.0263       0.477       7.418
  WS02006113           JUNCTION      3.24     7.80     0  03:01        0.19       0.495       5.077
  WS02006115           JUNCTION      0.08     8.22     0  03:01      0.0129        0.46       9.020
  WS02006116           JUNCTION      0.24     8.42     0  03:01      0.0347       0.459       8.301
  WS02006183           JUNCTION      0.00     0.00     0  00:00           0           0       0.000 ltr
  WS02006228           JUNCTION      4.90     4.90     0  03:02       0.283        0.44       4.325
  WS02006229           JUNCTION      0.13     3.88     0  01:58      0.0193       0.244       7.118
  WS02006230           JUNCTION      0.07     3.93     0  01:58      0.0111       0.254      10.901
  WS02006231           JUNCTION      0.13     4.00     0  01:54      0.0197       0.261       6.192
  WS02006232           JUNCTION      2.23     4.96     0  01:54       0.127       0.367       4.405
  WS02006234           JUNCTION      0.14     4.85     0  01:58      0.0208        0.36       4.009
  WS02006235           JUNCTION      0.14     5.41     0  01:58      0.0215       0.355       2.333
  WS02006238           JUNCTION      0.15     5.75     0  02:00      0.0226       0.355       2.980
  WS02006239           JUNCTION      0.11     5.15     0  01:59      0.0167       0.353       4.517
  WS02006242           JUNCTION      0.08     5.09     0  02:12      0.0124       0.352       5.514
  WS02006240           JUNCTION      0.06     5.01     0  02:12     0.00952       0.349       4.941
  WS02006243           JUNCTION      0.17     5.24     0  02:12      0.0259       0.358       5.045
  WS02006245           JUNCTION      0.07     5.23     0  02:12      0.0109       0.346       3.968
  WS02006247           JUNCTION      2.06     6.30     0  02:12       0.126       0.439       2.658
  WS02006248           JUNCTION      0.12    10.45     0  03:01      0.0185       0.615       1.702
  WS02006249           JUNCTION      0.19     5.69     0  02:11      0.0275       0.305       4.801
  WS02006251           JUNCTION      1.00     4.57     0  02:11      0.0572        0.28       5.106
  WS02006253           JUNCTION      0.11     3.43     0  03:01      0.0166       0.222       3.116
  WS02618401           JUNCTION      0.00     0.00     0  00:00           0           0       0.000 ltr
  WSA1649              JUNCTION      0.00     0.00     0  00:00           0           0       0.000 ltr
  outfall-5            OUTFALL       0.00    10.45     0  03:01           0       0.498       0.000
  outfall-14           OUTFALL       0.00     8.47     0  03:01           0        0.39       0.000
  outfall-16           OUTFALL       0.00     0.00     0  00:00           0           0       0.000 ltr
  CC-storage           STORAGE      10.87    10.87     0  03:00       0.781       0.781       0.012
  
  
  **********************
  Node Surcharge Summary
  **********************
  
  Surcharging occurs when water rises above the top of the highest conduit.
  ---------------------------------------------------------------------
                                               Max. Height   Min. Depth
                                   Hours       Above Crown    Below Rim
  Node                 Type      Surcharged         Meters       Meters
  ---------------------------------------------------------------------
  WS01000070           JUNCTION        3.83          0.000        0.000
  WS01000323           JUNCTION        3.83          0.000        0.000
  WS01000533           JUNCTION        3.83          0.000        2.147
  WS01005172           JUNCTION        3.83          0.000        0.000
  WS01005181           JUNCTION        3.83          0.000        0.000
  WS01009841           JUNCTION        3.83          0.000        0.000
  WS02000078           JUNCTION        3.83          0.000        0.000
  WS02000112           JUNCTION        3.83          0.000        0.000
  WS02000136           JUNCTION        3.83          0.000        0.000
  WS02004053           JUNCTION        3.83          0.000        0.000
  WS02006109           JUNCTION        2.14          0.878        0.960
  WS02006110           JUNCTION        2.15          0.897        0.948
  WS02006111           JUNCTION        2.16          0.915        0.962
  WS02006112           JUNCTION        2.41          1.173        0.510
  WS02006113           JUNCTION        2.16          0.907        1.026
  WS02006115           JUNCTION        2.44          1.192        1.107
  WS02006116           JUNCTION        2.52          1.251        1.099
  WS02006183           JUNCTION        3.83          0.000        0.000
  WS02006228           JUNCTION        2.11          0.848        1.383
  WS02006229           JUNCTION        2.08          0.807        1.647
  WS02006231           JUNCTION        2.02          0.695        0.848
  WS02006232           JUNCTION        1.92          0.566        0.923
  WS02006234           JUNCTION        1.83          0.436        0.821
  WS02006235           JUNCTION        1.83          0.426        0.868
  WS02006238           JUNCTION        1.83          0.416        1.018
  WS02006239           JUNCTION        1.80          0.385        0.944
  WS02006242           JUNCTION        1.75          0.294        0.555
  WS02006240           JUNCTION        1.75          0.304        1.099
  WS02006243           JUNCTION        1.68          0.173        0.607
  WS02006245           JUNCTION        1.66          0.103        0.752
  WS02006247           JUNCTION        1.64          0.082        0.678
  WS02618401           JUNCTION        3.83          0.000        0.000
  WSA1649              JUNCTION        3.83          0.000        0.000
  
  
  *********************
  Node Flooding Summary
  *********************
  
  Flooding refers to all water that overflows a node, whether it ponds or not.
  --------------------------------------------------------------------------
                                                             Total   Maximum
                                 Maximum   Time of Max       Flood    Ponded
                        Hours       Rate    Occurrence      Volume     Depth
  Node                 Flooded       MLD   days hr:min    10^6 ltr    Meters
  --------------------------------------------------------------------------
  CC-storage              2.17     10.87      0  03:00       0.622     0.000
  
  
  **********************
  Storage Volume Summary
  **********************
  
  --------------------------------------------------------------------------------------------------
                         Average     Avg  Evap Exfil       Maximum     Max    Time of Max    Maximum
                          Volume    Pcnt  Pcnt  Pcnt        Volume    Pcnt     Occurrence    Outflow
  Storage Unit           1000 m3    Full  Loss  Loss       1000 m3    Full    days hr:min        MLD
  --------------------------------------------------------------------------------------------------
  CC-storage               0.148      93     0     0         0.159     100       0  01:39       0.00
  
  
  ***********************
  Outfall Loading Summary
  ***********************
  
  ---------------------------------------------------------------------------------------------------------------------------------
                         Flow       Avg       Max       Total         Total         Total         Total         Total         Total
                         Freq      Flow      Flow      Volume           COD         NH3-N            TN            TP            SS
  Outfall Node           Pcnt       MLD       MLD    10^6 ltr            kg            kg            kg            kg            kg
  ---------------------------------------------------------------------------------------------------------------------------------
  outfall-5             81.59      7.38     10.45       0.498        60.621         0.000         0.000         0.000         0.000
  outfall-14            81.57      5.78      8.47       0.390        47.270         0.000         0.000         0.000         0.000
  outfall-16             0.00      0.00      0.00       0.000         0.000         0.000         0.000         0.000         0.000
  ---------------------------------------------------------------------------------------------------------------------------------
  System                54.39     13.15     18.91       0.888       107.891         0.000         0.000         0.000         0.000
  
  
  ********************
  Link Flow Summary
  ********************
  
  -----------------------------------------------------------------------------
                                 Maximum  Time of Max   Maximum    Max/    Max/
                                  |Flow|   Occurrence   |Veloc|    Full    Full
  Link                 Type          MLD  days hr:min     m/sec    Flow   Depth
  -----------------------------------------------------------------------------
  WSL2038              CONDUIT      3.13     0  03:01      0.49    0.16    0.74
  WSL2039              CONDUIT      3.33     0  03:01      0.74    0.17    0.81
  WSL2041              CONDUIT      3.24     0  03:01      0.54    0.16    0.77
  WSL2294              CONDUIT      4.56     0  03:01      0.43    0.15    1.00
  WSL2295              CONDUIT      4.64     0  03:01      0.50    0.21    1.00
  WSL2296              CONDUIT      8.00     0  03:01      0.63    0.05    1.00
  WSL2297              CONDUIT      8.15     0  03:01      0.34    0.16    1.00
  WSL2298              CONDUIT      7.80     0  03:01      0.87    0.36    1.00
  WSL2301              CONDUIT      8.23     0  03:01      0.29    0.08    1.00
  WSL2302              CONDUIT      8.42     0  03:01      0.23    0.10    1.00
  WSL2441              CONDUIT      4.49     0  03:01      0.44    0.11    1.00
  WSL2442              CONDUIT      3.86     0  01:58      0.63    0.10    1.00
  WSL2443              CONDUIT      3.86     0  01:54      0.73    0.06    1.00
  WSL2444              CONDUIT      3.94     0  01:54      0.88    0.06    1.00
  WSL2446              CONDUIT      4.71     0  01:58      0.84    0.08    1.00
  WSL2447              CONDUIT      5.27     0  01:58      0.71    0.27    1.00
  WSL2448              CONDUIT      5.61     0  02:00      0.57    0.16    1.00
  WSL2449              CONDUIT      5.04     0  01:59      0.55    0.18    1.00
  WSL2450              CONDUIT      4.95     0  02:12      0.64    0.10    1.00
  WSL2451              CONDUIT      5.01     0  02:12      0.61    0.33    1.00
  WSL2452              CONDUIT      5.08     0  02:12      0.63    0.10    1.00
  WSL2454              CONDUIT      5.17     0  02:12      0.77    0.12    1.00
  WSL2478              CONDUIT      5.36     0  02:12      0.66    0.19    1.00
  WSL2479              CONDUIT      6.52     0  02:12      0.59    0.12    1.00
  WSL2480              CONDUIT      5.52     0  02:11      0.64    0.26    0.99
  WSL2482              CONDUIT      4.42     0  03:01      0.56    0.12    0.94
  WSL2484              CONDUIT      3.46     0  02:14      0.66    0.05    0.80
  WSL2493              CONDUIT      3.75     0  01:58      0.51    0.06    1.00
  8                    CONDUIT     10.45     0  03:01      4.90    0.14    0.25
  19                   CONDUIT      0.00     0  00:00      0.00    0.00    0.00
  17                   CONDUIT      8.47     0  03:01      4.66    0.11    0.22
  CC-Pump-1            PUMP         0.00     0  00:00              0.00
  CC-Pump-2            PUMP         0.00     0  00:00              0.00
  
  
  ***************************
  Flow Classification Summary
  ***************************
  
  -------------------------------------------------------------------------------------
                      Adjusted    ---------- Fraction of Time in Flow Class ---------- 
                       /Actual         Up    Down  Sub   Sup   Up    Down  Norm  Inlet 
  Conduit               Length    Dry  Dry   Dry   Crit  Crit  Crit  Crit  Ltd   Ctrl  
  -------------------------------------------------------------------------------------
  WSL2038                 1.00   0.00  0.00  0.00  1.00  0.00  0.00  0.00  0.01  0.00
  WSL2039                 1.00   0.00  0.00  0.00  1.00  0.00  0.00  0.00  0.00  0.00
  WSL2041                 1.00   0.00  0.00  0.00  1.00  0.00  0.00  0.00  0.33  0.00
  WSL2294                 1.00   0.00  0.00  0.00  1.00  0.00  0.00  0.00  0.00  0.00
  WSL2295                 1.00   0.00  0.00  0.00  1.00  0.00  0.00  0.00  0.00  0.00
  WSL2296                 1.00   0.00  0.00  0.00  1.00  0.00  0.00  0.00  0.17  0.00
  WSL2297                 1.00   0.00  0.00  0.00  1.00  0.00  0.00  0.00  0.00  0.00
  WSL2298                 1.00   0.00  0.00  0.00  0.97  0.03  0.00  0.00  0.00  0.00
  WSL2301                 1.00   0.00  0.00  0.00  1.00  0.00  0.00  0.00  0.04  0.00
  WSL2302                 1.00   0.00  0.00  0.00  1.00  0.00  0.00  0.00  0.01  0.00
  WSL2441                 1.00   0.00  0.00  0.00  1.00  0.00  0.00  0.00  0.00  0.00
  WSL2442                 1.00   0.00  0.00  0.00  1.00  0.00  0.00  0.00  0.17  0.00
  WSL2443                 1.00   0.00  0.00  0.00  1.00  0.00  0.00  0.00  0.31  0.00
  WSL2444                 1.00   0.00  0.00  0.00  0.91  0.09  0.00  0.00  0.24  0.00
  WSL2446                 1.00   0.00  0.00  0.00  0.90  0.10  0.00  0.00  0.03  0.00
  WSL2447                 1.00   0.00  0.00  0.00  1.00  0.00  0.00  0.00  0.00  0.00
  WSL2448                 1.00   0.00  0.00  0.00  1.00  0.00  0.00  0.00  0.00  0.00
  WSL2449                 1.00   0.00  0.00  0.00  1.00  0.00  0.00  0.00  0.03  0.00
  WSL2450                 1.00   0.00  0.00  0.00  1.00  0.00  0.00  0.00  0.44  0.00
  WSL2451                 1.00   0.00  0.00  0.00  1.00  0.00  0.00  0.00  0.00  0.00
  WSL2452                 1.00   0.00  0.00  0.00  1.00  0.00  0.00  0.00  0.45  0.00
  WSL2454                 1.00   0.00  0.00  0.00  1.00  0.00  0.00  0.00  0.02  0.00
  WSL2478                 1.00   0.00  0.00  0.00  1.00  0.00  0.00  0.00  0.00  0.00
  WSL2479                 1.00   0.00  0.00  0.00  1.00  0.00  0.00  0.00  0.49  0.00
  WSL2480                 1.00   0.00  0.00  0.00  1.00  0.00  0.00  0.00  0.00  0.00
  WSL2482                 1.00   0.00  0.00  0.00  1.00  0.00  0.00  0.00  0.51  0.00
  WSL2484                 1.00   0.00  0.00  0.00  1.00  0.00  0.00  0.00  0.51  0.00
  WSL2493                 1.00   0.00  0.00  0.00  1.00  0.00  0.00  0.00  0.05  0.00
  8                       1.00   0.18  0.00  0.00  0.00  0.82  0.00  0.00  0.01  0.00
  19                      1.00   1.00  0.00  0.00  0.00  0.00  0.00  0.00  0.00  0.00
  17                      1.00   0.18  0.00  0.00  0.00  0.82  0.00  0.00  0.00  0.00
  
  
  *************************
  Conduit Surcharge Summary
  *************************
  
  ----------------------------------------------------------------------------
                                                           Hours        Hours 
                         --------- Hours Full --------   Above Full   Capacity
  Conduit                Both Ends  Upstream  Dnstream   Normal Flow   Limited
  ----------------------------------------------------------------------------
  WSL2294                     2.14      2.14      2.15      0.01         0.01
  WSL2295                     2.15      2.15      2.15      0.01         0.01
  WSL2296                     2.16      2.16      2.74      0.01         0.01
  WSL2297                     2.41      2.41      2.44      0.01         0.01
  WSL2298                     2.15      2.15      2.16      0.01         0.01
  WSL2301                     2.44      2.44      2.52      0.01         0.01
  WSL2302                     2.52      2.52      2.59      0.01         0.01
  WSL2441                     2.11      2.11      2.14      0.01         0.01
  WSL2442                     2.12      2.12      2.15      0.01         0.01
  WSL2443                     2.02      2.02      2.12      0.01         0.01
  WSL2444                     1.92      1.92      2.02      0.01         0.01
  WSL2446                     1.83      1.83      1.92      0.01         0.01
  WSL2447                     1.83      1.83      1.83      0.01         0.01
  WSL2448                     1.83      1.83      1.83      0.01         0.01
  WSL2449                     1.80      1.80      1.83      0.01         0.01
  WSL2450                     1.75      1.75      1.80      0.01         0.01
  WSL2451                     1.75      1.75      1.75      0.01         0.01
  WSL2452                     1.68      1.68      1.75      0.01         0.01
  WSL2454                     1.66      1.66      1.68      0.01         0.01
  WSL2478                     1.64      1.64      1.66      0.01         0.01
  WSL2479                     0.03      0.03      1.64      0.01         0.01
  WSL2480                     0.01      0.01      0.03      0.01         0.01
  WSL2493                     2.08      2.08      2.11      0.01         0.01
  
  
  ***************
  Pumping Summary
  ***************
  
  ---------------------------------------------------------------------------------------------------------
                                                  Min       Avg       Max     Total     Power    % Time Off
                        Percent   Number of      Flow      Flow      Flow    Volume     Usage    Pump Curve
  Pump                 Utilized   Start-Ups       MLD       MLD       MLD  10^6 ltr     Kw-hr    Low   High
  ---------------------------------------------------------------------------------------------------------
  CC-Pump-1                0.00           0      0.00      0.00      0.00     0.000      0.00    0.0    0.0
  CC-Pump-2                0.00           0      0.00      0.00      0.00     0.000      0.00    0.0    0.0
  
  
  ***************************
  Link Pollutant Load Summary
  ***************************
  
  ------------------------------------------------------------------------------------------
                                 COD         NH3-N            TN            TP            SS
  Link                            kg            kg            kg            kg            kg
  ------------------------------------------------------------------------------------------
  WSL2038                     18.497         0.000         0.000         0.000         0.000
  WSL2039                     23.626         0.000         0.000         0.000         0.000
  WSL2041                     21.284         0.000         0.000         0.000         0.000
  WSL2294                     60.016         0.000         0.000         0.000         0.000
  WSL2295                     53.292         0.000         0.000         0.000         0.000
  WSL2296                     54.363         0.000         0.000         0.000         0.000
  WSL2297                     53.578         0.000         0.000         0.000         0.000
  WSL2298                     51.123         0.000         0.000         0.000         0.000
  WSL2301                     52.052         0.000         0.000         0.000         0.000
  WSL2302                     52.677         0.000         0.000         0.000         0.000
  WSL2441                     65.412         0.000         0.000         0.000         0.000
  WSL2442                     45.101         0.000         0.000         0.000         0.000
  WSL2443                     43.248         0.000         0.000         0.000         0.000
  WSL2444                     42.214         0.000         0.000         0.000         0.000
  WSL2446                     41.485         0.000         0.000         0.000         0.000
  WSL2447                     40.888         0.000         0.000         0.000         0.000
  WSL2448                     40.626         0.000         0.000         0.000         0.000
  WSL2449                     40.093         0.000         0.000         0.000         0.000
  WSL2450                     39.752         0.000         0.000         0.000         0.000
  WSL2451                     39.635         0.000         0.000         0.000         0.000
  WSL2452                     39.829         0.000         0.000         0.000         0.000
  WSL2454                     39.408         0.000         0.000         0.000         0.000
  WSL2478                     39.128         0.000         0.000         0.000         0.000
  WSL2479                     46.576         0.000         0.000         0.000         0.000
  WSL2480                     39.630         0.000         0.000         0.000         0.000
  WSL2482                     35.721         0.000         0.000         0.000         0.000
  WSL2484                     26.585         0.000         0.000         0.000         0.000
  WSL2493                     44.917         0.000         0.000         0.000         0.000
  8                           60.621         0.000         0.000         0.000         0.000
  19                           0.000         0.000         0.000         0.000         0.000
  17                          47.270         0.000         0.000         0.000         0.000
  CC-Pump-1                    0.000         0.000         0.000         0.000         0.000
  CC-Pump-2                    0.000         0.000         0.000         0.000         0.000
  

  Analysis begun on:  Tue Dec 17 09:47:47 2019
  Analysis ended on:  Tue Dec 17 09:47:47 2019
  Total elapsed time: < 1 sec