
  EPA STORM WATER MANAGEMENT MODEL - VERSION 5.1 (Build 5.3.0.dev0)
  --------------------------------------------------------------

  
  *********************************************************
  NOTE: The summary statistics displayed in this report are
  based on results found at every computational time step,  
  not just on results from each reporting time step.
  *********************************************************
  
  ****************
  Analysis Options
  ****************
  Flow Units ............... MLD
  Process Models:
    Rainfall/Runoff ........ YES
    RDII ................... NO
    Snowmelt ............... NO
    Groundwater ............ NO
    Flow Routing ........... YES
    Ponding Allowed ........ NO
    Water Quality .......... YES
  Infiltration Method ...... GREEN_AMPT
  Flow Routing Method ...... DYNWAVE
  Surcharge Method ......... EXTRAN
  Starting Date ............ 08/28/2015 08:00:00
  Ending Date .............. 08/28/2015 11:50:00
  Antecedent Dry Days ...... 4.0
  Report Time Step ......... 00:01:00
  Wet Time Step ............ 00:01:00
  Dry Time Step ............ 00:01:00
  Routing Time Step ........ 5.00 sec
  Variable Time Step ....... YES
  Maximum Trials ........... 8
  Number of Threads ........ 1
  Head Tolerance ........... 0.001500 m
  
  
  **************************        Volume         Depth
  Runoff Quantity Continuity     hectare-m            mm
  **************************     ---------       -------
  Total Precipitation ......         1.035        16.729
  Evaporation Loss .........         0.000         0.000
  Infiltration Loss ........         0.499         8.073
  Surface Runoff ...........         0.235         3.791
  Final Storage ............         0.301         4.865
  Continuity Error (%) .....        -0.005
  
  
  **************************           COD         NH3-N            TN            TP            SS
  Runoff Quality Continuity             kg            kg            kg            kg            kg
  **************************    ----------    ----------    ----------    ----------    ----------
  Initial Buildup ..........      2504.640         0.000         0.000         0.000         0.000
  Surface Buildup ..........        19.555         0.000         0.000         0.000         0.000
  Wet Deposition ...........         0.000         0.000         0.000         0.000         0.000
  Sweeping Removal .........         0.000         0.000         0.000         0.000         0.000
  Infiltration Loss ........       104.188         0.000         0.000         0.000         0.000
  BMP Removal ..............         0.000         0.000         0.000         0.000         0.000
  Surface Runoff ...........       359.312         0.000         0.000         0.000         0.000
  Remaining Buildup ........      2059.723         0.000         0.000         0.000         0.000
  Continuity Error (%) .....         0.038         0.000         0.000         0.000         0.000
  
  
  **************************        Volume        Volume
  Flow Routing Continuity        hectare-m      10^6 ltr
  **************************     ---------     ---------
  Dry Weather Inflow .......         0.000         0.000
  Wet Weather Inflow .......         0.234         2.341
  Groundwater Inflow .......         0.000         0.000
  RDII Inflow ..............         0.000         0.000
  External Inflow ..........         0.082         0.822
  External Outflow .........         0.158         1.580
  Flooding Loss ............         0.093         0.928
  Evaporation Loss .........         0.000         0.000
  Exfiltration Loss ........         0.000         0.000
  Initial Stored Volume ....         0.000         0.000
  Final Stored Volume ......         0.062         0.619
  Continuity Error (%) .....         1.115
  
  
  **************************           COD         NH3-N            TN            TP            SS
  Quality Routing Continuity            kg            kg            kg            kg            kg
  **************************    ----------    ----------    ----------    ----------    ----------
  Dry Weather Inflow .......         0.000         0.000         0.000         0.000         0.000
  Wet Weather Inflow .......       358.687         0.000         0.000         0.000         0.000
  Groundwater Inflow .......         0.000         0.000         0.000         0.000         0.000
  RDII Inflow ..............         0.000         0.000         0.000         0.000         0.000
  External Inflow ..........       137.264         0.000         0.000         0.000         0.000
  External Outflow .........       247.926         0.000         0.000         0.000         0.000
  Flooding Loss ............       136.353         0.000         0.000         0.000         0.000
  Exfiltration Loss ........         0.000         0.000         0.000         0.000         0.000
  Mass Reacted .............         0.000         0.000         0.000         0.000         0.000
  Initial Stored Mass ......         0.000         0.000         0.000         0.000         0.000
  Final Stored Mass ........       104.139         0.000         0.000         0.000         0.000
  Continuity Error (%) .....         1.519         0.000         0.000         0.000         0.000
  
  
  *************************
  Highest Continuity Errors
  *************************
  Node WS02006230 (8.19%)
  Node WS02006229 (5.29%)
  Node WS02006115 (4.86%)
  Node WS02006231 (4.70%)
  Node WS02006116 (4.43%)
  
  
  ***************************
  Time-Step Critical Elements
  ***************************
  Link 8 (87.41%)
  Link WSL2448 (10.02%)
  
  
  ********************************
  Highest Flow Instability Indexes
  ********************************
  Link WSL2302 (3)
  Link WSL2301 (3)
  Link WSL2297 (3)
  Link WSL2296 (2)
  Link WSL2298 (2)
  
  
  *************************
  Routing Time Step Summary
  *************************
  Minimum Time Step           :     0.34 sec
  Average Time Step           :     1.11 sec
  Maximum Time Step           :     5.00 sec
  Percent in Steady State     :     0.00
  Average Iterations per Step :     2.13
  Percent Not Converging      :     1.10
  
  
  ***************************
  Subcatchment Runoff Summary
  ***************************
  
  ------------------------------------------------------------------------------------------------------------------------------
                            Total      Total      Total      Total     Imperv       Perv      Total       Total     Peak  Runoff
                           Precip      Runon       Evap      Infil     Runoff     Runoff     Runoff      Runoff   Runoff   Coeff
  Subcatchment                 mm         mm         mm         mm         mm         mm         mm    10^6 ltr      MLD
  ------------------------------------------------------------------------------------------------------------------------------
  1                         16.73      19.36       0.00       9.56       8.62       8.53      17.15        0.21     2.65   0.475
  2                         16.73       0.00       0.00       7.66       4.00       1.55       5.55        0.19     3.39   0.332
  3                         16.73       0.00       0.00       7.71       3.96       1.31       5.27        0.27     4.83   0.315
  35                        16.73       0.00       0.00       7.65       4.01       1.62       5.63        0.17     3.09   0.337
  36                        16.73      11.12       0.00       9.25       6.48       3.30       9.77        0.58     8.38   0.351
  40                        16.73       2.96       0.00       8.13       4.67       2.04       6.71        0.26     4.41   0.341
  41                        16.73       0.00       0.00       7.58       4.05       1.92       5.97        0.12     2.10   0.357
  42                        16.73       0.00       0.00       7.61       4.04       1.80       5.84        0.13     2.42   0.349
  43                        16.73       0.00       0.00       7.25       4.13       3.32       7.45        0.03     0.49   0.445
  44                        16.73     162.46       0.00      14.85      43.89      96.10     139.99        0.52     7.11   0.781
  45                        16.73       0.00       0.00       7.48       4.09       2.40       6.49        0.07     1.21   0.388
  46                        16.73       9.33       0.00       8.83       6.22       4.28      10.50        0.22     3.30   0.403
  47                        16.73       0.00       0.00       7.49       4.09       2.34       6.43        0.07     1.29   0.384
  48                        16.73       4.51       0.00       8.18       5.13       3.30       8.43        0.13     2.15   0.397
  55                        16.73       6.74       0.00       8.29       5.71       4.88      10.59        0.09     1.35   0.451
  56                        16.73      10.26       0.00       8.93       6.44       4.54      10.98        0.24     3.38   0.407
  57                        16.73       0.00       0.00       7.71       3.96       1.32       5.28        0.26     4.75   0.316
  59                        16.73       0.00       0.00       7.44       4.10       2.57       6.67        0.06     1.01   0.399
  60                        16.73      14.65       0.00       8.93       7.66       9.05      16.70        0.09     1.24   0.532
  61                        16.73       0.00       0.00       7.82       3.75       0.76       4.51        0.81    13.87   0.270
  64                        16.73       0.00       0.00       7.50       4.08       2.28       6.36        0.08     1.38   0.380
  
  
  ****************************
  Subcatchment Washoff Summary
  ****************************
  
  ------------------------------------------------------------------------------------------
                                 COD         NH3-N            TN            TP            SS
  Subcatchment                    kg            kg            kg            kg            kg
  ------------------------------------------------------------------------------------------
  1                           33.135         0.000         0.000         0.000         0.000
  2                            0.000         0.000         0.000         0.000         0.000
  3                            0.000         0.000         0.000         0.000         0.000
  35                          26.671         0.000         0.000         0.000         0.000
  36                         167.329         0.000         0.000         0.000         0.000
  40                          51.547         0.000         0.000         0.000         0.000
  41                          18.814         0.000         0.000         0.000         0.000
  42                          21.349         0.000         0.000         0.000         0.000
  43                           5.058         0.000         0.000         0.000         0.000
  44                         157.084         0.000         0.000         0.000         0.000
  45                          11.478         0.000         0.000         0.000         0.000
  46                          64.420         0.000         0.000         0.000         0.000
  47                          12.167         0.000         0.000         0.000         0.000
  48                          30.801         0.000         0.000         0.000         0.000
  55                          23.352         0.000         0.000         0.000         0.000
  56                          69.961         0.000         0.000         0.000         0.000
  57                          39.472         0.000         0.000         0.000         0.000
  59                           9.792         0.000         0.000         0.000         0.000
  60                          26.499         0.000         0.000         0.000         0.000
  61                         106.269         0.000         0.000         0.000         0.000
  64                          12.930         0.000         0.000         0.000         0.000
  ------------------------------------------------------------------------------------------
  System                     888.128         0.000         0.000         0.000         0.000
  
  
  ******************
  Node Depth Summary
  ******************
  
  ---------------------------------------------------------------------------------
                                 Average  Maximum  Maximum  Time of Max    Reported
                                   Depth    Depth      HGL   Occurrence   Max Depth
  Node                 Type       Meters   Meters   Meters  days hr:min      Meters
  ---------------------------------------------------------------------------------
  WS01000070           JUNCTION     0.00     0.00     0.00     0  00:00        0.00
  WS01000323           JUNCTION     0.00     0.00     0.00     0  00:00        0.00
  WS01000533           JUNCTION     0.00     0.00     6.86     0  00:00        0.00
  WS01005172           JUNCTION     0.00     0.00     0.00     0  00:00        0.00
  WS01005181           JUNCTION     0.00     0.00     0.00     0  00:00        0.00
  WS01009841           JUNCTION     0.00     0.00     0.00     0  00:00        0.00
  WS02000078           JUNCTION     0.00     0.00     0.00     0  00:00        0.00
  WS02000112           JUNCTION     0.00     0.00     0.00     0  00:00        0.00
  WS02000136           JUNCTION     0.00     0.00     0.00     0  00:00        0.00
  WS02004053           JUNCTION     0.00     0.00     0.00     0  00:00        0.00
  WS02004401           JUNCTION     2.12     2.31     8.31     0  02:05        2.31
  WS02005192           JUNCTION     0.38     0.58     8.45     0  01:51        0.56
  WS02005193           JUNCTION     0.43     0.60     8.42     0  01:51        0.55
  WS02005196           JUNCTION     0.40     0.58     8.43     0  01:51        0.54
  WS02006109           JUNCTION     1.53     1.71     8.33     0  01:52        1.70
  WS02006110           JUNCTION     1.54     1.72     8.32     0  01:52        1.72
  WS02006111           JUNCTION     1.56     1.74     8.32     0  02:00        1.73
  WS02006112           JUNCTION     2.01     2.19     8.31     0  02:00        2.19
  WS02006113           JUNCTION     1.55     1.73     8.32     0  01:52        1.72
  WS02006115           JUNCTION     2.03     2.21     8.31     0  02:00        2.21
  WS02006116           JUNCTION     2.09     2.27     8.31     0  02:00        2.27
  WS02006183           JUNCTION     0.00     0.00     0.00     0  00:00        0.00
  WS02006228           JUNCTION     1.50     1.69     8.34     0  01:52        1.67
  WS02006229           JUNCTION     1.46     1.65     8.34     0  01:52        1.63
  WS02006230           JUNCTION     1.40     1.59     8.34     0  01:52        1.57
  WS02006231           JUNCTION     1.26     1.45     8.35     0  01:52        1.42
  WS02006232           JUNCTION     1.14     1.33     8.36     0  01:52        1.30
  WS02006234           JUNCTION     1.02     1.20     8.36     0  01:52        1.17
  WS02006235           JUNCTION     1.01     1.20     8.37     0  01:52        1.16
  WS02006238           JUNCTION     1.01     1.19     8.37     0  01:52        1.15
  WS02006239           JUNCTION     0.98     1.16     8.37     0  01:52        1.12
  WS02006242           JUNCTION     0.90     1.07     8.37     0  01:52        1.03
  WS02006240           JUNCTION     0.90     1.08     8.37     0  01:52        1.04
  WS02006243           JUNCTION     0.78     0.94     8.36     0  01:52        0.90
  WS02006245           JUNCTION     0.72     0.87     8.36     0  01:51        0.83
  WS02006247           JUNCTION     0.70     0.84     8.35     0  01:51        0.82
  WS02006248           JUNCTION     0.63     0.75     8.34     0  01:52        0.75
  WS02006249           JUNCTION     0.62     0.78     8.38     0  01:51        0.75
  WS02006251           JUNCTION     0.56     0.79     8.46     0  01:51        0.69
  WS02006253           JUNCTION     0.44     0.62     8.42     0  01:51        0.58
  WS02618401           JUNCTION     0.00     0.00     0.00     0  00:00        0.00
  WSA1649              JUNCTION     0.00     0.00     0.00     0  00:00        0.00
  outfall-5            OUTFALL      0.09     0.15     7.81     0  01:52        0.15
  outfall-14           OUTFALL      0.08     0.11     7.77     0  02:05        0.11
  outfall-16           OUTFALL      0.00     0.00     8.39     0  00:00        0.00
  CC-storage           STORAGE      5.32     5.63     8.81     0  01:32        5.63
  
  
  *******************
  Node Inflow Summary
  *******************
  
  -------------------------------------------------------------------------------------------------
                                  Maximum  Maximum                  Lateral       Total        Flow
                                  Lateral    Total  Time of Max      Inflow      Inflow     Balance
                                   Inflow   Inflow   Occurrence      Volume      Volume       Error
  Node                 Type           MLD      MLD  days hr:min    10^6 ltr    10^6 ltr     Percent
  -------------------------------------------------------------------------------------------------
  WS01000070           JUNCTION      0.00     0.00     0  00:00           0           0       0.000 ltr
  WS01000323           JUNCTION      0.00     0.00     0  00:00           0           0       0.000 ltr
  WS01000533           JUNCTION      0.00     0.00     0  00:00           0           0       0.000 ltr
  WS01005172           JUNCTION      0.00     0.00     0  00:00           0           0       0.000 ltr
  WS01005181           JUNCTION      0.00     0.00     0  00:00           0           0       0.000 ltr
  WS01009841           JUNCTION      0.00     0.00     0  00:00           0           0       0.000 ltr
  WS02000078           JUNCTION      0.00     0.00     0  00:00           0           0       0.000 ltr
  WS02000112           JUNCTION      0.00     0.00     0  00:00           0           0       0.000 ltr
  WS02000136           JUNCTION      0.00     0.00     0  00:00           0           0       0.000 ltr
  WS02004053           JUNCTION      0.00     0.00     0  00:00           0           0       0.000 ltr
  WS02004401           JUNCTION      0.05    11.65     0  02:05      0.0086       0.737       3.955
  WS02005192           JUNCTION      4.87     4.87     0  01:56       0.281       0.281       0.828
  WS02005193           JUNCTION      0.09     8.46     0  01:52       0.014       0.309       2.223
  WS02005196           JUNCTION      0.12     6.64     0  01:52      0.0183       0.297       2.083
  WS02006109           JUNCTION      0.08     6.47     0  02:16      0.0129       0.577       4.359
  WS02006110           JUNCTION      0.08     6.55     0  02:16      0.0126       0.568       4.496
  WS02006111           JUNCTION      0.24    11.15     0  02:05      0.0352       0.778       2.699
  WS02006112           JUNCTION      0.18    11.31     0  02:05      0.0263       0.784       4.281
  WS02006113           JUNCTION      5.00    10.94     0  02:05       0.294       0.802       3.018
  WS02006115           JUNCTION      0.08    11.39     0  02:05      0.0129       0.768       5.111
  WS02006116           JUNCTION      0.24    11.59     0  02:05      0.0347        0.77       4.635
  WS02006183           JUNCTION      0.00     0.00     0  00:00           0           0       0.000 ltr
  WS02006228           JUNCTION      7.27     7.79     0  01:48       0.544       0.699       2.610
  WS02006229           JUNCTION      0.13     7.87     0  01:48      0.0193       0.296       5.585
  WS02006230           JUNCTION      0.07     7.84     0  01:48      0.0111       0.308       8.916
  WS02006231           JUNCTION      0.13     7.24     0  01:49      0.0197       0.315       4.930
  WS02006232           JUNCTION      3.47    10.38     0  01:49         0.2       0.491       3.206
  WS02006234           JUNCTION      0.14    10.38     0  01:49      0.0208       0.481       2.920
  WS02006235           JUNCTION      0.14    10.30     0  01:49      0.0215       0.479       1.627
  WS02006238           JUNCTION      0.15    10.02     0  01:50      0.0226       0.481       2.092
  WS02006239           JUNCTION      0.11    10.15     0  01:50      0.0167       0.481       3.253
  WS02006242           JUNCTION      0.08    10.31     0  01:50      0.0124       0.485       3.907
  WS02006240           JUNCTION      0.06    10.22     0  01:50     0.00952       0.479       3.526
  WS02006243           JUNCTION      0.17    10.48     0  01:50      0.0259       0.496       3.573
  WS02006245           JUNCTION      0.07    10.55     0  01:50      0.0109       0.489       2.771
  WS02006247           JUNCTION      2.79    12.92     0  01:50       0.231       0.684       1.680
  WS02006248           JUNCTION      0.12    22.26     0  01:52      0.0185       0.998       1.047
  WS02006249           JUNCTION      0.19    12.35     0  01:52      0.0275        0.45       3.233
  WS02006251           JUNCTION      1.41    12.08     0  01:52      0.0971       0.425       3.347
  WS02006253           JUNCTION      0.11     9.85     0  01:52      0.0166       0.326       2.138
  WS02618401           JUNCTION      0.00     0.00     0  00:00           0           0       0.000 ltr
  WSA1649              JUNCTION      0.00     0.00     0  00:00           0           0       0.000 ltr
  outfall-5            OUTFALL       0.00    22.13     0  01:52           0       0.876       0.000
  outfall-14           OUTFALL       0.00    11.65     0  02:05           0       0.703       0.000
  outfall-16           OUTFALL       0.00     0.00     0  00:00           0           0       0.000 ltr
  CC-storage           STORAGE      15.78    15.78     0  02:00        1.09        1.09      -0.000
  
  
  **********************
  Node Surcharge Summary
  **********************
  
  Surcharging occurs when water rises above the top of the highest conduit.
  ---------------------------------------------------------------------
                                               Max. Height   Min. Depth
                                   Hours       Above Crown    Below Rim
  Node                 Type      Surcharged         Meters       Meters
  ---------------------------------------------------------------------
  WS01000070           JUNCTION        3.83          0.000        0.000
  WS01000323           JUNCTION        3.83          0.000        0.000
  WS01000533           JUNCTION        3.83          0.000        2.147
  WS01005172           JUNCTION        3.83          0.000        0.000
  WS01005181           JUNCTION        3.83          0.000        0.000
  WS01009841           JUNCTION        3.83          0.000        0.000
  WS02000078           JUNCTION        3.83          0.000        0.000
  WS02000112           JUNCTION        3.83          0.000        0.000
  WS02000136           JUNCTION        3.83          0.000        0.000
  WS02004053           JUNCTION        3.83          0.000        0.000
  WS02005193           JUNCTION        0.01          0.004        2.613
  WS02006109           JUNCTION        2.26          0.914        0.924
  WS02006110           JUNCTION        2.27          0.925        0.920
  WS02006111           JUNCTION        2.28          0.936        0.941
  WS02006112           JUNCTION        2.45          1.193        0.490
  WS02006113           JUNCTION        2.27          0.932        1.001
  WS02006115           JUNCTION        2.47          1.210        1.089
  WS02006116           JUNCTION        2.55          1.268        1.082
  WS02006183           JUNCTION        3.83          0.000        0.000
  WS02006228           JUNCTION        2.25          0.890        1.341
  WS02006229           JUNCTION        2.23          0.852        1.602
  WS02006231           JUNCTION        2.18          0.751        0.792
  WS02006232           JUNCTION        2.14          0.627        0.862
  WS02006234           JUNCTION        2.10          0.503        0.754
  WS02006235           JUNCTION        2.09          0.497        0.797
  WS02006238           JUNCTION        2.09          0.488        0.946
  WS02006239           JUNCTION        2.08          0.459        0.870
  WS02006242           JUNCTION        2.06          0.369        0.480
  WS02006240           JUNCTION        2.06          0.379        1.024
  WS02006243           JUNCTION        2.02          0.245        0.535
  WS02006245           JUNCTION        2.02          0.172        0.683
  WS02006247           JUNCTION        2.01          0.145        0.615
  WS02006249           JUNCTION        0.52          0.082        0.306
  WS02006251           JUNCTION        0.01          0.094        1.416
  WS02618401           JUNCTION        3.83          0.000        0.000
  WSA1649              JUNCTION        3.83          0.000        0.000
  
  
  *********************
  Node Flooding Summary
  *********************
  
  Flooding refers to all water that overflows a node, whether it ponds or not.
  --------------------------------------------------------------------------
                                                             Total   Maximum
                                 Maximum   Time of Max       Flood    Ponded
                        Hours       Rate    Occurrence      Volume     Depth
  Node                 Flooded       MLD   days hr:min    10^6 ltr    Meters
  --------------------------------------------------------------------------
  CC-storage              2.29     15.78      0  02:00       0.929     0.000
  
  
  **********************
  Storage Volume Summary
  **********************
  
  --------------------------------------------------------------------------------------------------
                         Average     Avg  Evap Exfil       Maximum     Max    Time of Max    Maximum
                          Volume    Pcnt  Pcnt  Pcnt        Volume    Pcnt     Occurrence    Outflow
  Storage Unit           1000 m3    Full  Loss  Loss       1000 m3    Full    days hr:min        MLD
  --------------------------------------------------------------------------------------------------
  CC-storage               0.150      94     0     0         0.159     100       0  01:32       0.00
  
  
  ***********************
  Outfall Loading Summary
  ***********************
  
  ---------------------------------------------------------------------------------------------------------------------------------
                         Flow       Avg       Max       Total         Total         Total         Total         Total         Total
                         Freq      Flow      Flow      Volume           COD         NH3-N            TN            TP            SS
  Outfall Node           Pcnt       MLD       MLD    10^6 ltr            kg            kg            kg            kg            kg
  ---------------------------------------------------------------------------------------------------------------------------------
  outfall-5             87.98     10.71     22.13       0.876       138.494         0.000         0.000         0.000         0.000
  outfall-14            88.04      8.56     11.65       0.703       109.441         0.000         0.000         0.000         0.000
  outfall-16             0.00      0.00      0.00       0.000         0.000         0.000         0.000         0.000         0.000
  ---------------------------------------------------------------------------------------------------------------------------------
  System                58.68     19.27     29.79       1.580       247.936         0.000         0.000         0.000         0.000
  
  
  ********************
  Link Flow Summary
  ********************
  
  -----------------------------------------------------------------------------
                                 Maximum  Time of Max   Maximum    Max/    Max/
                                  |Flow|   Occurrence   |Veloc|    Full    Full
  Link                 Type          MLD  days hr:min     m/sec    Flow   Depth
  -----------------------------------------------------------------------------
  WSL2038              CONDUIT      6.52     0  01:52      0.69    0.32    0.95
  WSL2039              CONDUIT      9.74     0  01:52      1.00    0.50    1.00
  WSL2041              CONDUIT      8.37     0  01:52      0.76    0.41    0.98
  WSL2294              CONDUIT      6.47     0  02:16      0.43    0.22    1.00
  WSL2295              CONDUIT      6.55     0  02:16      0.50    0.29    1.00
  WSL2296              CONDUIT     11.15     0  02:05      0.63    0.06    1.00
  WSL2297              CONDUIT     11.31     0  02:05      0.34    0.22    1.00
  WSL2298              CONDUIT     10.94     0  02:05      0.87    0.50    1.00
  WSL2301              CONDUIT     11.39     0  02:05      0.29    0.10    1.00
  WSL2302              CONDUIT     11.59     0  02:05      0.23    0.14    1.00
  WSL2441              CONDUIT      6.39     0  02:16      0.44    0.16    1.00
  WSL2442              CONDUIT      7.77     0  01:48      0.63    0.20    1.00
  WSL2443              CONDUIT      7.11     0  01:49      0.73    0.11    1.00
  WSL2444              CONDUIT      7.14     0  01:49      0.91    0.11    1.00
  WSL2446              CONDUIT     10.24     0  01:49      0.87    0.18    1.00
  WSL2447              CONDUIT     10.15     0  01:49      0.79    0.52    1.00
  WSL2448              CONDUIT      9.87     0  01:50      0.65    0.28    1.00
  WSL2449              CONDUIT     10.04     0  01:50      0.63    0.35    1.00
  WSL2450              CONDUIT     10.16     0  01:50      0.72    0.21    1.00
  WSL2451              CONDUIT     10.23     0  01:50      0.72    0.67    1.00
  WSL2452              CONDUIT     10.31     0  01:50      0.76    0.20    1.00
  WSL2454              CONDUIT     10.48     0  01:50      0.92    0.24    1.00
  WSL2478              CONDUIT     10.59     0  01:50      0.80    0.37    1.00
  WSL2479              CONDUIT     13.14     0  01:50      0.70    0.25    1.00
  WSL2480              CONDUIT     12.51     0  01:52      0.80    0.58    1.00
  WSL2482              CONDUIT     12.17     0  01:52      0.72    0.32    1.00
  WSL2484              CONDUIT     10.69     0  01:52      0.81    0.15    0.94
  WSL2493              CONDUIT      7.74     0  01:48      0.51    0.13    1.00
  8                    CONDUIT     22.13     0  01:52      6.06    0.29    0.37
  19                   CONDUIT      0.00     0  00:00      0.00    0.00    0.00
  17                   CONDUIT     11.65     0  02:05      5.11    0.15    0.26
  CC-Pump-1            PUMP         0.00     0  00:00              0.00
  CC-Pump-2            PUMP         0.00     0  00:00              0.00
  
  
  ***************************
  Flow Classification Summary
  ***************************
  
  -------------------------------------------------------------------------------------
                      Adjusted    ---------- Fraction of Time in Flow Class ---------- 
                       /Actual         Up    Down  Sub   Sup   Up    Down  Norm  Inlet 
  Conduit               Length    Dry  Dry   Dry   Crit  Crit  Crit  Crit  Ltd   Ctrl  
  -------------------------------------------------------------------------------------
  WSL2038                 1.00   0.00  0.00  0.00  1.00  0.00  0.00  0.00  0.01  0.00
  WSL2039                 1.00   0.00  0.00  0.00  0.98  0.02  0.00  0.00  0.00  0.00
  WSL2041                 1.00   0.00  0.00  0.00  1.00  0.00  0.00  0.00  0.30  0.00
  WSL2294                 1.00   0.00  0.00  0.00  1.00  0.00  0.00  0.00  0.00  0.00
  WSL2295                 1.00   0.00  0.00  0.00  1.00  0.00  0.00  0.00  0.00  0.00
  WSL2296                 1.00   0.00  0.00  0.00  1.00  0.00  0.00  0.00  0.17  0.00
  WSL2297                 1.00   0.00  0.00  0.00  1.00  0.00  0.00  0.00  0.00  0.00
  WSL2298                 1.00   0.00  0.00  0.00  0.98  0.02  0.00  0.00  0.00  0.00
  WSL2301                 1.00   0.00  0.00  0.00  1.00  0.00  0.00  0.00  0.04  0.00
  WSL2302                 1.00   0.00  0.00  0.00  1.00  0.00  0.00  0.00  0.01  0.00
  WSL2441                 1.00   0.00  0.00  0.00  1.00  0.00  0.00  0.00  0.00  0.00
  WSL2442                 1.00   0.00  0.00  0.00  1.00  0.00  0.00  0.00  0.17  0.00
  WSL2443                 1.00   0.00  0.00  0.00  1.00  0.00  0.00  0.00  0.31  0.00
  WSL2444                 1.00   0.00  0.00  0.00  0.93  0.07  0.00  0.00  0.23  0.00
  WSL2446                 1.00   0.00  0.00  0.00  0.94  0.06  0.00  0.00  0.02  0.00
  WSL2447                 1.00   0.00  0.00  0.00  1.00  0.00  0.00  0.00  0.00  0.00
  WSL2448                 1.00   0.00  0.00  0.00  1.00  0.00  0.00  0.00  0.00  0.00
  WSL2449                 1.00   0.00  0.00  0.00  1.00  0.00  0.00  0.00  0.03  0.00
  WSL2450                 1.00   0.00  0.00  0.00  1.00  0.00  0.00  0.00  0.40  0.00
  WSL2451                 1.00   0.00  0.00  0.00  1.00  0.00  0.00  0.00  0.00  0.00
  WSL2452                 1.00   0.00  0.00  0.00  1.00  0.00  0.00  0.00  0.42  0.00
  WSL2454                 1.00   0.00  0.00  0.00  1.00  0.00  0.00  0.00  0.02  0.00
  WSL2478                 1.00   0.00  0.00  0.00  1.00  0.00  0.00  0.00  0.00  0.00
  WSL2479                 1.00   0.00  0.00  0.00  1.00  0.00  0.00  0.00  0.43  0.00
  WSL2480                 1.00   0.00  0.00  0.00  1.00  0.00  0.00  0.00  0.00  0.00
  WSL2482                 1.00   0.00  0.00  0.00  1.00  0.00  0.00  0.00  0.41  0.00
  WSL2484                 1.00   0.00  0.00  0.00  1.00  0.00  0.00  0.00  0.45  0.00
  WSL2493                 1.00   0.00  0.00  0.00  1.00  0.00  0.00  0.00  0.05  0.00
  8                       1.00   0.12  0.00  0.00  0.00  0.88  0.00  0.00  0.01  0.00
  19                      1.00   1.00  0.00  0.00  0.00  0.00  0.00  0.00  0.00  0.00
  17                      1.00   0.12  0.00  0.00  0.00  0.88  0.00  0.00  0.00  0.00
  
  
  *************************
  Conduit Surcharge Summary
  *************************
  
  ----------------------------------------------------------------------------
                                                           Hours        Hours 
                         --------- Hours Full --------   Above Full   Capacity
  Conduit                Both Ends  Upstream  Dnstream   Normal Flow   Limited
  ----------------------------------------------------------------------------
  WSL2039                     0.01      0.01      0.01      0.01         0.01
  WSL2041                     0.01      0.01      0.01      0.01         0.01
  WSL2294                     2.26      2.26      2.27      0.01         0.01
  WSL2295                     2.27      2.27      2.27      0.01         0.01
  WSL2296                     2.28      2.28      2.74      0.01         0.01
  WSL2297                     2.45      2.45      2.47      0.01         0.01
  WSL2298                     2.27      2.27      2.28      0.01         0.01
  WSL2301                     2.47      2.47      2.55      0.01         0.01
  WSL2302                     2.55      2.55      2.60      0.01         0.01
  WSL2441                     2.25      2.25      2.26      0.01         0.01
  WSL2442                     2.25      2.25      2.27      0.01         0.01
  WSL2443                     2.18      2.18      2.25      0.01         0.01
  WSL2444                     2.14      2.14      2.18      0.01         0.01
  WSL2446                     2.10      2.10      2.14      0.01         0.01
  WSL2447                     2.09      2.09      2.10      0.01         0.01
  WSL2448                     2.09      2.09      2.09      0.01         0.01
  WSL2449                     2.08      2.08      2.09      0.01         0.01
  WSL2450                     2.06      2.06      2.08      0.01         0.01
  WSL2451                     2.06      2.06      2.06      0.01         0.01
  WSL2452                     2.02      2.02      2.06      0.01         0.01
  WSL2454                     2.02      2.02      2.02      0.01         0.01
  WSL2478                     2.01      2.01      2.02      0.01         0.01
  WSL2479                     1.21      1.21      2.01      0.01         0.01
  WSL2480                     0.52      0.52      1.21      0.01         0.02
  WSL2482                     0.01      0.01      0.52      0.01         0.01
  WSL2484                     0.01      0.01      0.01      0.01         0.01
  WSL2493                     2.23      2.23      2.25      0.01         0.01
  
  
  ***************
  Pumping Summary
  ***************
  
  ---------------------------------------------------------------------------------------------------------
                                                  Min       Avg       Max     Total     Power    % Time Off
                        Percent   Number of      Flow      Flow      Flow    Volume     Usage    Pump Curve
  Pump                 Utilized   Start-Ups       MLD       MLD       MLD  10^6 ltr     Kw-hr    Low   High
  ---------------------------------------------------------------------------------------------------------
  CC-Pump-1                0.00           0      0.00      0.00      0.00     0.000      0.00    0.0    0.0
  CC-Pump-2                0.00           0      0.00      0.00      0.00     0.000      0.00    0.0    0.0
  
  
  ***************************
  Link Pollutant Load Summary
  ***************************
  
  ------------------------------------------------------------------------------------------
                                 COD         NH3-N            TN            TP            SS
  Link                            kg            kg            kg            kg            kg
  ------------------------------------------------------------------------------------------
  WSL2038                     42.495         0.000         0.000         0.000         0.000
  WSL2039                     48.550         0.000         0.000         0.000         0.000
  WSL2041                     45.409         0.000         0.000         0.000         0.000
  WSL2294                    131.619         0.000         0.000         0.000         0.000
  WSL2295                    123.126         0.000         0.000         0.000         0.000
  WSL2296                    122.516         0.000         0.000         0.000         0.000
  WSL2297                    119.552         0.000         0.000         0.000         0.000
  WSL2298                    119.820         0.000         0.000         0.000         0.000
  WSL2301                    116.111         0.000         0.000         0.000         0.000
  WSL2302                    114.719         0.000         0.000         0.000         0.000
  WSL2441                    139.386         0.000         0.000         0.000         0.000
  WSL2442                     65.206         0.000         0.000         0.000         0.000
  WSL2443                     61.984         0.000         0.000         0.000         0.000
  WSL2444                     60.510         0.000         0.000         0.000         0.000
  WSL2446                     59.401         0.000         0.000         0.000         0.000
  WSL2447                     58.718         0.000         0.000         0.000         0.000
  WSL2448                     58.706         0.000         0.000         0.000         0.000
  WSL2449                     57.973         0.000         0.000         0.000         0.000
  WSL2450                     57.213         0.000         0.000         0.000         0.000
  WSL2451                     56.724         0.000         0.000         0.000         0.000
  WSL2452                     57.011         0.000         0.000         0.000         0.000
  WSL2454                     57.123         0.000         0.000         0.000         0.000
  WSL2478                     57.018         0.000         0.000         0.000         0.000
  WSL2479                     88.778         0.000         0.000         0.000         0.000
  WSL2480                     79.718         0.000         0.000         0.000         0.000
  WSL2482                     76.060         0.000         0.000         0.000         0.000
  WSL2484                     52.704         0.000         0.000         0.000         0.000
  WSL2493                     65.717         0.000         0.000         0.000         0.000
  8                          138.494         0.000         0.000         0.000         0.000
  19                           0.000         0.000         0.000         0.000         0.000
  17                         109.441         0.000         0.000         0.000         0.000
  CC-Pump-1                    0.000         0.000         0.000         0.000         0.000
  CC-Pump-2                    0.000         0.000         0.000         0.000         0.000
  

  Analysis begun on:  Tue Dec 17 09:48:53 2019
  Analysis ended on:  Tue Dec 17 09:48:53 2019
  Total elapsed time: < 1 sec