
  EPA STORM WATER MANAGEMENT MODEL - VERSION 5.1 (Build 5.3.0.dev0)
  --------------------------------------------------------------

  
  *********************************************************
  NOTE: The summary statistics displayed in this report are
  based on results found at every computational time step,  
  not just on results from each reporting time step.
  *********************************************************
  
  ****************
  Analysis Options
  ****************
  Flow Units ............... MLD
  Process Models:
    Rainfall/Runoff ........ YES
    RDII ................... NO
    Snowmelt ............... NO
    Groundwater ............ NO
    Flow Routing ........... YES
    Ponding Allowed ........ NO
    Water Quality .......... YES
  Infiltration Method ...... GREEN_AMPT
  Flow Routing Method ...... DYNWAVE
  Surcharge Method ......... EXTRAN
  Starting Date ............ 08/28/2015 08:00:00
  Ending Date .............. 08/28/2015 11:50:00
  Antecedent Dry Days ...... 4.0
  Report Time Step ......... 00:01:00
  Wet Time Step ............ 00:01:00
  Dry Time Step ............ 00:01:00
  Routing Time Step ........ 5.00 sec
  Variable Time Step ....... YES
  Maximum Trials ........... 8
  Number of Threads ........ 1
  Head Tolerance ........... 0.001500 m
  
  
  **************************        Volume         Depth
  Runoff Quantity Continuity     hectare-m            mm
  **************************     ---------       -------
  Total Precipitation ......         1.474        23.836
  Evaporation Loss .........         0.000         0.000
  Infiltration Loss ........         0.585         9.452
  Surface Runoff ...........         0.388         6.265
  Final Storage ............         0.502         8.120
  Continuity Error (%) .....        -0.005
  
  
  **************************           COD         NH3-N            TN            TP            SS
  Runoff Quality Continuity             kg            kg            kg            kg            kg
  **************************    ----------    ----------    ----------    ----------    ----------
  Initial Buildup ..........      2504.640         0.000         0.000         0.000         0.000
  Surface Buildup ..........        19.267         0.000         0.000         0.000         0.000
  Wet Deposition ...........         0.000         0.000         0.000         0.000         0.000
  Sweeping Removal .........         0.000         0.000         0.000         0.000         0.000
  Infiltration Loss ........       158.687         0.000         0.000         0.000         0.000
  BMP Removal ..............         0.000         0.000         0.000         0.000         0.000
  Surface Runoff ...........       692.943         0.000         0.000         0.000         0.000
  Remaining Buildup ........      1670.990         0.000         0.000         0.000         0.000
  Continuity Error (%) .....         0.051         0.000         0.000         0.000         0.000
  
  
  **************************        Volume        Volume
  Flow Routing Continuity        hectare-m      10^6 ltr
  **************************     ---------     ---------
  Dry Weather Inflow .......         0.000         0.000
  Wet Weather Inflow .......         0.387         3.867
  Groundwater Inflow .......         0.000         0.000
  RDII Inflow ..............         0.000         0.000
  External Inflow ..........         0.082         0.822
  External Outflow .........         0.265         2.645
  Flooding Loss ............         0.139         1.389
  Evaporation Loss .........         0.000         0.000
  Exfiltration Loss ........         0.000         0.000
  Initial Stored Volume ....         0.000         0.000
  Final Stored Volume ......         0.062         0.621
  Continuity Error (%) .....         0.693
  
  
  **************************           COD         NH3-N            TN            TP            SS
  Quality Routing Continuity            kg            kg            kg            kg            kg
  **************************    ----------    ----------    ----------    ----------    ----------
  Dry Weather Inflow .......         0.000         0.000         0.000         0.000         0.000
  Wet Weather Inflow .......       691.716         0.000         0.000         0.000         0.000
  Groundwater Inflow .......         0.000         0.000         0.000         0.000         0.000
  RDII Inflow ..............         0.000         0.000         0.000         0.000         0.000
  External Inflow ..........       137.264         0.000         0.000         0.000         0.000
  External Outflow .........       476.309         0.000         0.000         0.000         0.000
  Flooding Loss ............       237.415         0.000         0.000         0.000         0.000
  Exfiltration Loss ........         0.000         0.000         0.000         0.000         0.000
  Mass Reacted .............         0.000         0.000         0.000         0.000         0.000
  Initial Stored Mass ......         0.000         0.000         0.000         0.000         0.000
  Final Stored Mass ........       106.997         0.000         0.000         0.000         0.000
  Continuity Error (%) .....         0.996         0.000         0.000         0.000         0.000
  
  
  *************************
  Highest Continuity Errors
  *************************
  Node WS02006230 (6.79%)
  Node WS02006229 (4.32%)
  Node WS02006231 (3.81%)
  Node WS02006115 (2.94%)
  Node WS02006110 (2.73%)
  
  
  ***************************
  Time-Step Critical Elements
  ***************************
  Link 8 (91.01%)
  Link WSL2448 (7.14%)
  
  
  ********************************
  Highest Flow Instability Indexes
  ********************************
  Link WSL2302 (2)
  Link WSL2301 (2)
  Link WSL2297 (2)
  Link WSL2296 (1)
  Link WSL2298 (1)
  
  
  *************************
  Routing Time Step Summary
  *************************
  Minimum Time Step           :     0.10 sec
  Average Time Step           :     0.91 sec
  Maximum Time Step           :     5.00 sec
  Percent in Steady State     :     0.00
  Average Iterations per Step :     2.11
  Percent Not Converging      :     1.18
  
  
  ***************************
  Subcatchment Runoff Summary
  ***************************
  
  ------------------------------------------------------------------------------------------------------------------------------
                            Total      Total      Total      Total     Imperv       Perv      Total       Total     Peak  Runoff
                           Precip      Runon       Evap      Infil     Runoff     Runoff     Runoff      Runoff   Runoff   Coeff
  Subcatchment                 mm         mm         mm         mm         mm         mm         mm    10^6 ltr      MLD
  ------------------------------------------------------------------------------------------------------------------------------
  1                         23.84      33.49       0.00      11.36      13.73      17.29      31.02        0.38     5.23   0.541
  2                         23.84       0.00       0.00       8.90       5.74       3.24       8.98        0.30     4.22   0.377
  3                         23.84       0.00       0.00       8.99       5.69       2.77       8.46        0.43     5.98   0.355
  35                        23.84       0.00       0.00       8.88       5.76       3.36       9.12        0.28     3.86   0.383
  36                        23.84      18.55       0.00      11.03       9.90       6.92      16.82        0.99    13.15   0.397
  40                        23.84       4.82       0.00       9.53       6.84       4.24      11.08        0.43     5.66   0.387
  41                        23.84       0.00       0.00       8.77       5.80       3.93       9.73        0.19     2.63   0.408
  42                        23.84       0.00       0.00       8.81       5.79       3.72       9.51        0.22     3.03   0.399
  43                        23.84       0.00       0.00       8.23       5.90       6.39      12.29        0.04     0.61   0.516
  44                        23.84     278.98       0.00      17.62      74.32     173.86     248.18        0.92    12.24   0.820
  45                        23.84       0.00       0.00       8.59       5.85       4.82      10.67        0.11     1.52   0.448
  46                        23.84      15.58       0.00      10.41       9.44       8.71      18.16        0.39     5.26   0.461
  47                        23.84       0.00       0.00       8.61       5.85       4.71      10.55        0.12     1.63   0.443
  48                        23.84       7.40       0.00       9.53       7.56       6.65      14.21        0.22     3.02   0.455
  55                        23.84      11.09       0.00       9.62       8.51       9.54      18.05        0.15     2.05   0.517
  56                        23.84      17.06       0.00      10.53       9.79       9.22      19.01        0.41     5.52   0.465
  57                        23.84       0.00       0.00       8.98       5.69       2.79       8.48        0.42     5.88   0.356
  59                        23.84       0.00       0.00       8.53       5.86       5.12      10.98        0.09     1.28   0.461
  60                        23.84      24.03       0.00      10.37      11.69      17.02      28.71        0.15     2.04   0.600
  61                        23.84       0.00       0.00       9.18       5.43       1.65       7.08        1.27    16.87   0.297
  64                        23.84       0.00       0.00       8.64       5.84       4.60      10.44        0.13     1.74   0.438
  
  
  ****************************
  Subcatchment Washoff Summary
  ****************************
  
  ------------------------------------------------------------------------------------------
                                 COD         NH3-N            TN            TP            SS
  Subcatchment                    kg            kg            kg            kg            kg
  ------------------------------------------------------------------------------------------
  1                           68.667         0.000         0.000         0.000         0.000
  2                            0.000         0.000         0.000         0.000         0.000
  3                            0.000         0.000         0.000         0.000         0.000
  35                          52.729         0.000         0.000         0.000         0.000
  36                         318.382         0.000         0.000         0.000         0.000
  40                         102.619         0.000         0.000         0.000         0.000
  41                          37.172         0.000         0.000         0.000         0.000
  42                          42.204         0.000         0.000         0.000         0.000
  43                           9.509         0.000         0.000         0.000         0.000
  44                         296.021         0.000         0.000         0.000         0.000
  45                          22.478         0.000         0.000         0.000         0.000
  46                         118.729         0.000         0.000         0.000         0.000
  47                          23.865         0.000         0.000         0.000         0.000
  48                          59.120         0.000         0.000         0.000         0.000
  55                          41.451         0.000         0.000         0.000         0.000
  56                         123.039         0.000         0.000         0.000         0.000
  57                          77.861         0.000         0.000         0.000         0.000
  59                          19.076         0.000         0.000         0.000         0.000
  60                          39.711         0.000         0.000         0.000         0.000
  61                         208.943         0.000         0.000         0.000         0.000
  64                          25.399         0.000         0.000         0.000         0.000
  ------------------------------------------------------------------------------------------
  System                    1686.974         0.000         0.000         0.000         0.000
  
  
  ******************
  Node Depth Summary
  ******************
  
  ---------------------------------------------------------------------------------
                                 Average  Maximum  Maximum  Time of Max    Reported
                                   Depth    Depth      HGL   Occurrence   Max Depth
  Node                 Type       Meters   Meters   Meters  days hr:min      Meters
  ---------------------------------------------------------------------------------
  WS01000070           JUNCTION     0.00     0.00     0.00     0  00:00        0.00
  WS01000323           JUNCTION     0.00     0.00     0.00     0  00:00        0.00
  WS01000533           JUNCTION     0.00     0.00     6.86     0  00:00        0.00
  WS01005172           JUNCTION     0.00     0.00     0.00     0  00:00        0.00
  WS01005181           JUNCTION     0.00     0.00     0.00     0  00:00        0.00
  WS01009841           JUNCTION     0.00     0.00     0.00     0  00:00        0.00
  WS02000078           JUNCTION     0.00     0.00     0.00     0  00:00        0.00
  WS02000112           JUNCTION     0.00     0.00     0.00     0  00:00        0.00
  WS02000136           JUNCTION     0.00     0.00     0.00     0  00:00        0.00
  WS02004053           JUNCTION     0.00     0.00     0.00     0  00:00        0.00
  WS02004401           JUNCTION     2.18     2.33     8.33     0  03:01        2.33
  WS02005192           JUNCTION     0.42     1.94     9.81     0  01:36        0.59
  WS02005193           JUNCTION     0.46     1.31     9.13     0  01:36        0.64
  WS02005196           JUNCTION     0.43     1.21     9.06     0  01:36        0.61
  WS02006109           JUNCTION     1.59     1.73     8.35     0  03:00        1.73
  WS02006110           JUNCTION     1.61     1.75     8.35     0  03:00        1.75
  WS02006111           JUNCTION     1.62     1.76     8.34     0  03:00        1.76
  WS02006112           JUNCTION     2.07     2.22     8.34     0  03:00        2.21
  WS02006113           JUNCTION     1.61     1.76     8.35     0  03:00        1.75
  WS02006115           JUNCTION     2.09     2.23     8.33     0  03:00        2.23
  WS02006116           JUNCTION     2.14     2.29     8.33     0  03:00        2.29
  WS02006183           JUNCTION     0.00     0.00     0.00     0  00:00        0.00
  WS02006228           JUNCTION     1.56     1.70     8.35     0  03:00        1.70
  WS02006229           JUNCTION     1.52     1.67     8.36     0  01:37        1.66
  WS02006230           JUNCTION     1.46     1.61     8.36     0  01:37        1.61
  WS02006231           JUNCTION     1.32     1.47     8.37     0  01:37        1.46
  WS02006232           JUNCTION     1.20     1.34     8.37     0  01:37        1.34
  WS02006234           JUNCTION     1.08     1.21     8.37     0  01:37        1.21
  WS02006235           JUNCTION     1.07     1.21     8.38     0  01:37        1.20
  WS02006238           JUNCTION     1.06     1.20     8.38     0  01:37        1.19
  WS02006239           JUNCTION     1.03     1.16     8.37     0  01:37        1.16
  WS02006242           JUNCTION     0.95     1.12     8.42     0  01:35        1.06
  WS02006240           JUNCTION     0.95     1.10     8.39     0  01:35        1.07
  WS02006243           JUNCTION     0.83     1.05     8.47     0  01:35        0.94
  WS02006245           JUNCTION     0.77     0.98     8.47     0  01:35        0.87
  WS02006247           JUNCTION     0.75     0.90     8.41     0  01:35        0.85
  WS02006248           JUNCTION     0.67     0.77     8.36     0  01:37        0.76
  WS02006249           JUNCTION     0.66     1.09     8.69     0  01:36        0.77
  WS02006251           JUNCTION     0.60     1.85     9.52     0  01:36        0.76
  WS02006253           JUNCTION     0.48     1.66     9.46     0  01:36        0.65
  WS02618401           JUNCTION     0.00     0.00     0.00     0  00:00        0.00
  WSA1649              JUNCTION     0.00     0.00     0.00     0  00:00        0.00
  outfall-5            OUTFALL      0.11     0.17     7.84     0  01:37        0.16
  outfall-14           OUTFALL      0.10     0.13     7.79     0  03:01        0.13
  outfall-16           OUTFALL      0.00     0.00     8.39     0  00:00        0.00
  CC-storage           STORAGE      5.38     5.63     8.81     0  01:24        5.63
  
  
  *******************
  Node Inflow Summary
  *******************
  
  -------------------------------------------------------------------------------------------------
                                  Maximum  Maximum                  Lateral       Total        Flow
                                  Lateral    Total  Time of Max      Inflow      Inflow     Balance
                                   Inflow   Inflow   Occurrence      Volume      Volume       Error
  Node                 Type           MLD      MLD  days hr:min    10^6 ltr    10^6 ltr     Percent
  -------------------------------------------------------------------------------------------------
  WS01000070           JUNCTION      0.00     0.00     0  00:00           0           0       0.000 ltr
  WS01000323           JUNCTION      0.00     0.00     0  00:00           0           0       0.000 ltr
  WS01000533           JUNCTION      0.00     0.00     0  00:00           0           0       0.000 ltr
  WS01005172           JUNCTION      0.00     0.00     0  00:00           0           0       0.000 ltr
  WS01005181           JUNCTION      0.00     0.00     0  00:00           0           0       0.000 ltr
  WS01009841           JUNCTION      0.00     0.00     0  00:00           0           0       0.000 ltr
  WS02000078           JUNCTION      0.00     0.00     0  00:00           0           0       0.000 ltr
  WS02000112           JUNCTION      0.00     0.00     0  00:00           0           0       0.000 ltr
  WS02000136           JUNCTION      0.00     0.00     0  00:00           0           0       0.000 ltr
  WS02004053           JUNCTION      0.00     0.00     0  00:00           0           0       0.000 ltr
  WS02004401           JUNCTION      0.05    16.90     0  03:01      0.0086        1.23       2.363
  WS02005192           JUNCTION      6.00     8.17     0  01:36        0.44        0.44       0.549
  WS02005193           JUNCTION      0.09    13.27     0  01:35       0.014       0.472       1.509
  WS02005196           JUNCTION      0.12    13.13     0  01:36      0.0183       0.458       1.413
  WS02006109           JUNCTION      0.08    10.64     0  03:01      0.0129       0.899       2.742
  WS02006110           JUNCTION      0.08    10.71     0  03:01      0.0126        0.89       2.807
  WS02006111           JUNCTION      0.24    16.42     0  03:01      0.0352        1.27       1.632
  WS02006112           JUNCTION      0.18    16.57     0  03:01      0.0263        1.27       2.585
  WS02006113           JUNCTION      6.15    16.23     0  03:01       0.456        1.29       1.853
  WS02006115           JUNCTION      0.08    16.65     0  03:01      0.0129        1.26       3.028
  WS02006116           JUNCTION      0.24    16.85     0  03:01      0.0347        1.26       2.730
  WS02006183           JUNCTION      0.00     0.00     0  00:00           0           0       0.000 ltr
  WS02006228           JUNCTION     12.39    12.39     0  03:02       0.943        1.09       1.649
  WS02006229           JUNCTION      0.13    10.95     0  01:34      0.0193       0.362       4.520
  WS02006230           JUNCTION      0.07    11.03     0  01:34      0.0111       0.376       7.285
  WS02006231           JUNCTION      0.13    11.58     0  01:30      0.0197       0.385       3.965
  WS02006232           JUNCTION      4.31    15.54     0  01:30       0.315       0.672       2.288
  WS02006234           JUNCTION      0.14    14.01     0  01:30      0.0208       0.658       2.098
  WS02006235           JUNCTION      0.14    15.20     0  01:30      0.0215       0.658       1.136
  WS02006238           JUNCTION      0.15    14.95     0  01:31      0.0226       0.664       1.467
  WS02006239           JUNCTION      0.11    14.22     0  01:31      0.0167       0.668       2.310
  WS02006242           JUNCTION      0.08    14.31     0  01:35      0.0124       0.676       2.725
  WS02006240           JUNCTION      0.06    14.21     0  01:35     0.00952       0.668       2.501
  WS02006243           JUNCTION      0.17    14.45     0  01:35      0.0259       0.692       2.519
  WS02006245           JUNCTION      0.07    14.64     0  01:35      0.0109       0.689       1.933
  WS02006247           JUNCTION      5.36    19.44     0  01:34       0.398        1.05       1.083
  WS02006248           JUNCTION      0.12    27.99     0  01:37      0.0185        1.58       0.670
  WS02006249           JUNCTION      0.19    14.77     0  01:37      0.0275       0.676       2.154
  WS02006251           JUNCTION      2.11    14.93     0  01:34       0.159       0.652       2.215
  WS02006253           JUNCTION      0.11    15.77     0  01:36      0.0166       0.491       1.495
  WS02618401           JUNCTION      0.00     0.00     0  00:00           0           0       0.000 ltr
  WSA1649              JUNCTION      0.00     0.00     0  00:00           0           0       0.000 ltr
  outfall-5            OUTFALL       0.00    28.05     0  01:37           0        1.45       0.000
  outfall-14           OUTFALL       0.00    16.90     0  03:01           0        1.19       0.000
  outfall-16           OUTFALL       0.00     0.00     0  00:00           0           0       0.000 ltr
  CC-storage           STORAGE      18.79    18.79     0  01:44        1.55        1.55       0.013
  
  
  **********************
  Node Surcharge Summary
  **********************
  
  Surcharging occurs when water rises above the top of the highest conduit.
  ---------------------------------------------------------------------
                                               Max. Height   Min. Depth
                                   Hours       Above Crown    Below Rim
  Node                 Type      Surcharged         Meters       Meters
  ---------------------------------------------------------------------
  WS01000070           JUNCTION        3.83          0.000        0.000
  WS01000323           JUNCTION        3.83          0.000        0.000
  WS01000533           JUNCTION        3.83          0.000        2.147
  WS01005172           JUNCTION        3.83          0.000        0.000
  WS01005181           JUNCTION        3.83          0.000        0.000
  WS01009841           JUNCTION        3.83          0.000        0.000
  WS02000078           JUNCTION        3.83          0.000        0.000
  WS02000112           JUNCTION        3.83          0.000        0.000
  WS02000136           JUNCTION        3.83          0.000        0.000
  WS02004053           JUNCTION        3.83          0.000        0.000
  WS02005192           JUNCTION        0.01          1.336        1.483
  WS02005193           JUNCTION        0.01          0.710        1.907
  WS02005196           JUNCTION        0.01          0.606        2.100
  WS02006109           JUNCTION        2.40          0.932        0.906
  WS02006110           JUNCTION        2.40          0.949        0.896
  WS02006111           JUNCTION        2.41          0.960        0.917
  WS02006112           JUNCTION        2.52          1.215        0.468
  WS02006113           JUNCTION        2.41          0.957        0.976
  WS02006115           JUNCTION        2.52          1.232        1.067
  WS02006116           JUNCTION        2.58          1.290        1.060
  WS02006183           JUNCTION        3.83          0.000        0.000
  WS02006228           JUNCTION        2.40          0.903        1.328
  WS02006229           JUNCTION        2.39          0.866        1.588
  WS02006231           JUNCTION        2.37          0.769        0.774
  WS02006232           JUNCTION        2.33          0.642        0.847
  WS02006234           JUNCTION        2.31          0.514        0.743
  WS02006235           JUNCTION        2.30          0.505        0.789
  WS02006238           JUNCTION        2.30          0.495        0.939
  WS02006239           JUNCTION        2.30          0.464        0.865
  WS02006242           JUNCTION        2.29          0.421        0.428
  WS02006240           JUNCTION        2.29          0.396        1.007
  WS02006243           JUNCTION        2.26          0.347        0.433
  WS02006245           JUNCTION        2.25          0.284        0.571
  WS02006247           JUNCTION        2.25          0.197        0.563
  WS02006249           JUNCTION        1.90          0.388        0.000
  WS02006251           JUNCTION        0.01          1.148        0.362
  WS02006253           JUNCTION        0.01          0.965        1.489
  WS02618401           JUNCTION        3.83          0.000        0.000
  WSA1649              JUNCTION        3.83          0.000        0.000
  
  
  *********************
  Node Flooding Summary
  *********************
  
  Flooding refers to all water that overflows a node, whether it ponds or not.
  --------------------------------------------------------------------------
                                                             Total   Maximum
                                 Maximum   Time of Max       Flood    Ponded
                        Hours       Rate    Occurrence      Volume     Depth
  Node                 Flooded       MLD   days hr:min    10^6 ltr    Meters
  --------------------------------------------------------------------------
  WS02006249              0.01      5.74      0  01:36       0.000     0.000
  CC-storage              2.43     18.79      0  01:44       1.390     0.000
  
  
  **********************
  Storage Volume Summary
  **********************
  
  --------------------------------------------------------------------------------------------------
                         Average     Avg  Evap Exfil       Maximum     Max    Time of Max    Maximum
                          Volume    Pcnt  Pcnt  Pcnt        Volume    Pcnt     Occurrence    Outflow
  Storage Unit           1000 m3    Full  Loss  Loss       1000 m3    Full    days hr:min        MLD
  --------------------------------------------------------------------------------------------------
  CC-storage               0.152      96     0     0         0.159     100       0  01:24       0.00
  
  
  ***********************
  Outfall Loading Summary
  ***********************
  
  ---------------------------------------------------------------------------------------------------------------------------------
                         Flow       Avg       Max       Total         Total         Total         Total         Total         Total
                         Freq      Flow      Flow      Volume           COD         NH3-N            TN            TP            SS
  Outfall Node           Pcnt       MLD       MLD    10^6 ltr            kg            kg            kg            kg            kg
  ---------------------------------------------------------------------------------------------------------------------------------
  outfall-5             91.39     15.65     28.05       1.451       253.013         0.000         0.000         0.000         0.000
  outfall-14            91.47     12.83     16.90       1.194       223.312         0.000         0.000         0.000         0.000
  outfall-16             0.00      0.00      0.00       0.000         0.000         0.000         0.000         0.000         0.000
  ---------------------------------------------------------------------------------------------------------------------------------
  System                60.96     28.47     37.31       2.645       476.326         0.000         0.000         0.000         0.000
  
  
  ********************
  Link Flow Summary
  ********************
  
  -----------------------------------------------------------------------------
                                 Maximum  Time of Max   Maximum    Max/    Max/
                                  |Flow|   Occurrence   |Veloc|    Full    Full
  Link                 Type          MLD  days hr:min     m/sec    Flow   Depth
  -----------------------------------------------------------------------------
  WSL2038              CONDUIT      9.08     0  01:36      0.78    0.45    1.00
  WSL2039              CONDUIT     13.17     0  01:35      1.16    0.68    1.00
  WSL2041              CONDUIT     10.34     0  01:37      0.88    0.51    1.00
  WSL2294              CONDUIT     10.64     0  03:01      0.43    0.36    1.00
  WSL2295              CONDUIT     10.71     0  03:01      0.50    0.48    1.00
  WSL2296              CONDUIT     16.43     0  03:01      0.63    0.09    1.00
  WSL2297              CONDUIT     16.58     0  03:01      0.34    0.32    1.00
  WSL2298              CONDUIT     16.23     0  03:01      0.87    0.75    1.00
  WSL2301              CONDUIT     16.65     0  03:01      0.29    0.15    1.00
  WSL2302              CONDUIT     16.85     0  03:01      0.25    0.21    1.00
  WSL2441              CONDUIT     10.56     0  03:01      0.44    0.27    1.00
  WSL2442              CONDUIT     10.96     0  01:34      0.63    0.28    1.00
  WSL2443              CONDUIT     11.45     0  01:30      0.73    0.18    1.00
  WSL2444              CONDUIT     11.52     0  01:30      1.00    0.18    1.00
  WSL2446              CONDUIT     13.87     0  01:30      0.93    0.24    1.00
  WSL2447              CONDUIT     15.06     0  01:30      0.93    0.77    1.00
  WSL2448              CONDUIT     14.80     0  01:31      0.79    0.42    1.00
  WSL2449              CONDUIT     14.11     0  01:31      0.75    0.49    1.00
  WSL2450              CONDUIT     14.15     0  01:35      0.85    0.29    1.00
  WSL2451              CONDUIT     14.23     0  01:35      0.85    0.93    1.00
  WSL2452              CONDUIT     14.27     0  01:35      0.91    0.27    1.00
  WSL2454              CONDUIT     14.57     0  01:35      1.10    0.34    1.00
  WSL2478              CONDUIT     16.45     0  01:34      0.98    0.58    1.00
  WSL2479              CONDUIT     18.04     0  01:34      0.81    0.34    1.00
  WSL2480              CONDUIT     14.82     0  01:37      0.91    0.69    1.00
  WSL2482              CONDUIT     14.59     0  01:37      0.85    0.38    1.00
  WSL2484              CONDUIT     15.66     0  01:36      0.92    0.22    1.00
  WSL2493              CONDUIT     10.82     0  01:34      0.51    0.18    1.00
  8                    CONDUIT     28.05     0  01:37      6.46    0.37    0.42
  19                   CONDUIT      0.00     0  00:00      0.00    0.00    0.00
  17                   CONDUIT     16.90     0  03:01      5.68    0.22    0.32
  CC-Pump-1            PUMP         0.00     0  00:00              0.00
  CC-Pump-2            PUMP         0.00     0  00:00              0.00
  
  
  ***************************
  Flow Classification Summary
  ***************************
  
  -------------------------------------------------------------------------------------
                      Adjusted    ---------- Fraction of Time in Flow Class ---------- 
                       /Actual         Up    Down  Sub   Sup   Up    Down  Norm  Inlet 
  Conduit               Length    Dry  Dry   Dry   Crit  Crit  Crit  Crit  Ltd   Ctrl  
  -------------------------------------------------------------------------------------
  WSL2038                 1.00   0.00  0.00  0.00  1.00  0.00  0.00  0.00  0.01  0.00
  WSL2039                 1.00   0.00  0.00  0.00  0.98  0.02  0.00  0.00  0.00  0.00
  WSL2041                 1.00   0.00  0.00  0.00  1.00  0.00  0.00  0.00  0.27  0.00
  WSL2294                 1.00   0.00  0.00  0.00  1.00  0.00  0.00  0.00  0.00  0.00
  WSL2295                 1.00   0.00  0.00  0.00  1.00  0.00  0.00  0.00  0.00  0.00
  WSL2296                 1.00   0.00  0.00  0.00  1.00  0.00  0.00  0.00  0.17  0.00
  WSL2297                 1.00   0.00  0.00  0.00  1.00  0.00  0.00  0.00  0.00  0.00
  WSL2298                 1.00   0.00  0.00  0.00  0.98  0.02  0.00  0.00  0.00  0.00
  WSL2301                 1.00   0.00  0.00  0.00  1.00  0.00  0.00  0.00  0.04  0.00
  WSL2302                 1.00   0.00  0.00  0.00  1.00  0.00  0.00  0.00  0.01  0.00
  WSL2441                 1.00   0.00  0.00  0.00  1.00  0.00  0.00  0.00  0.00  0.00
  WSL2442                 1.00   0.00  0.00  0.00  1.00  0.00  0.00  0.00  0.17  0.00
  WSL2443                 1.00   0.00  0.00  0.00  1.00  0.00  0.00  0.00  0.30  0.00
  WSL2444                 1.00   0.00  0.00  0.00  0.94  0.06  0.00  0.00  0.21  0.00
  WSL2446                 1.00   0.00  0.00  0.00  0.95  0.05  0.00  0.00  0.06  0.00
  WSL2447                 1.00   0.00  0.00  0.00  1.00  0.00  0.00  0.00  0.00  0.00
  WSL2448                 1.00   0.00  0.00  0.00  1.00  0.00  0.00  0.00  0.00  0.00
  WSL2449                 1.00   0.00  0.00  0.00  1.00  0.00  0.00  0.00  0.02  0.00
  WSL2450                 1.00   0.00  0.00  0.00  1.00  0.00  0.00  0.00  0.34  0.00
  WSL2451                 1.00   0.00  0.00  0.00  1.00  0.00  0.00  0.00  0.00  0.00
  WSL2452                 1.00   0.00  0.00  0.00  1.00  0.00  0.00  0.00  0.36  0.00
  WSL2454                 1.00   0.00  0.00  0.00  1.00  0.00  0.00  0.00  0.01  0.00
  WSL2478                 1.00   0.00  0.00  0.00  1.00  0.00  0.00  0.00  0.00  0.00
  WSL2479                 1.00   0.00  0.00  0.00  1.00  0.00  0.00  0.00  0.35  0.00
  WSL2480                 1.00   0.00  0.00  0.00  1.00  0.00  0.00  0.00  0.00  0.00
  WSL2482                 1.00   0.00  0.00  0.00  1.00  0.00  0.00  0.00  0.33  0.00
  WSL2484                 1.00   0.00  0.00  0.00  1.00  0.00  0.00  0.00  0.40  0.00
  WSL2493                 1.00   0.00  0.00  0.00  1.00  0.00  0.00  0.00  0.05  0.00
  8                       1.00   0.09  0.00  0.00  0.00  0.91  0.00  0.00  0.02  0.00
  19                      1.00   1.00  0.00  0.00  0.00  0.00  0.00  0.00  0.00  0.00
  17                      1.00   0.09  0.00  0.00  0.00  0.91  0.00  0.00  0.00  0.00
  
  
  *************************
  Conduit Surcharge Summary
  *************************
  
  ----------------------------------------------------------------------------
                                                           Hours        Hours 
                         --------- Hours Full --------   Above Full   Capacity
  Conduit                Both Ends  Upstream  Dnstream   Normal Flow   Limited
  ----------------------------------------------------------------------------
  WSL2038                     0.01      0.01      0.01      0.01         0.01
  WSL2039                     0.01      0.01      0.01      0.01         0.01
  WSL2041                     0.01      0.01      0.01      0.01         0.01
  WSL2294                     2.40      2.40      2.40      0.01         0.01
  WSL2295                     2.40      2.40      2.41      0.01         0.01
  WSL2296                     2.41      2.41      2.74      0.01         0.01
  WSL2297                     2.52      2.52      2.52      0.01         0.01
  WSL2298                     2.41      2.41      2.41      0.01         0.02
  WSL2301                     2.52      2.52      2.58      0.01         0.01
  WSL2302                     2.58      2.58      2.62      0.01         0.01
  WSL2441                     2.40      2.40      2.40      0.01         0.01
  WSL2442                     2.39      2.39      2.41      0.01         0.01
  WSL2443                     2.37      2.37      2.39      0.01         0.01
  WSL2444                     2.33      2.33      2.37      0.01         0.01
  WSL2446                     2.31      2.31      2.33      0.01         0.01
  WSL2447                     2.30      2.30      2.31      0.01         0.01
  WSL2448                     2.30      2.30      2.30      0.01         0.01
  WSL2449                     2.30      2.30      2.30      0.01         0.01
  WSL2450                     2.29      2.29      2.30      0.01         0.01
  WSL2451                     2.28      2.29      2.29      0.01         0.01
  WSL2452                     2.26      2.26      2.29      0.01         0.01
  WSL2454                     2.25      2.25      2.26      0.01         0.01
  WSL2478                     2.25      2.25      2.25      0.01         0.01
  WSL2479                     2.18      2.18      2.25      0.01         0.01
  WSL2480                     1.90      1.90      2.18      0.01         0.01
  WSL2482                     0.01      0.01      1.90      0.01         0.01
  WSL2484                     0.01      0.01      0.01      0.01         0.01
  WSL2493                     2.39      2.39      2.40      0.01         0.01
  
  
  ***************
  Pumping Summary
  ***************
  
  ---------------------------------------------------------------------------------------------------------
                                                  Min       Avg       Max     Total     Power    % Time Off
                        Percent   Number of      Flow      Flow      Flow    Volume     Usage    Pump Curve
  Pump                 Utilized   Start-Ups       MLD       MLD       MLD  10^6 ltr     Kw-hr    Low   High
  ---------------------------------------------------------------------------------------------------------
  CC-Pump-1                0.00           0      0.00      0.00      0.00     0.000      0.00    0.0    0.0
  CC-Pump-2                0.00           0      0.00      0.00      0.00     0.000      0.00    0.0    0.0
  
  
  ***************************
  Link Pollutant Load Summary
  ***************************
  
  ------------------------------------------------------------------------------------------
                                 COD         NH3-N            TN            TP            SS
  Link                            kg            kg            kg            kg            kg
  ------------------------------------------------------------------------------------------
  WSL2038                     80.981         0.000         0.000         0.000         0.000
  WSL2039                     88.625         0.000         0.000         0.000         0.000
  WSL2041                     84.734         0.000         0.000         0.000         0.000
  WSL2294                    245.465         0.000         0.000         0.000         0.000
  WSL2295                    236.298         0.000         0.000         0.000         0.000
  WSL2296                    236.004         0.000         0.000         0.000         0.000
  WSL2297                    233.386         0.000         0.000         0.000         0.000
  WSL2298                    233.325         0.000         0.000         0.000         0.000
  WSL2301                    229.666         0.000         0.000         0.000         0.000
  WSL2302                    228.528         0.000         0.000         0.000         0.000
  WSL2441                    256.217         0.000         0.000         0.000         0.000
  WSL2442                     88.149         0.000         0.000         0.000         0.000
  WSL2443                     84.418         0.000         0.000         0.000         0.000
  WSL2444                     82.956         0.000         0.000         0.000         0.000
  WSL2446                     82.218         0.000         0.000         0.000         0.000
  WSL2447                     82.101         0.000         0.000         0.000         0.000
  WSL2448                     82.539         0.000         0.000         0.000         0.000
  WSL2449                     82.514         0.000         0.000         0.000         0.000
  WSL2450                     82.637         0.000         0.000         0.000         0.000
  WSL2451                     82.664         0.000         0.000         0.000         0.000
  WSL2452                     84.697         0.000         0.000         0.000         0.000
  WSL2454                     86.973         0.000         0.000         0.000         0.000
  WSL2478                     88.622         0.000         0.000         0.000         0.000
  WSL2479                    156.716         0.000         0.000         0.000         0.000
  WSL2480                    139.833         0.000         0.000         0.000         0.000
  WSL2482                    136.276         0.000         0.000         0.000         0.000
  WSL2484                     94.128         0.000         0.000         0.000         0.000
  WSL2493                     88.706         0.000         0.000         0.000         0.000
  8                          253.013         0.000         0.000         0.000         0.000
  19                           0.000         0.000         0.000         0.000         0.000
  17                         223.312         0.000         0.000         0.000         0.000
  CC-Pump-1                    0.000         0.000         0.000         0.000         0.000
  CC-Pump-2                    0.000         0.000         0.000         0.000         0.000
  

  Analysis begun on:  Tue Dec 17 09:48:31 2019
  Analysis ended on:  Tue Dec 17 09:48:31 2019
  Total elapsed time: < 1 sec